/*--------------------------------*- C++ -*----------------------------------*\
  =========                 |
  \\      /  F ield         | OpenFOAM: The Open Source CFD Toolbox
   \\    /   O peration     | Website:  https://openfoam.org
    \\  /    A nd           | Version:  6
     \\/     M anipulation  |
\*---------------------------------------------------------------------------*/
FoamFile
{
    version     2.0;
    format      ascii;
    class       featureEdgeMesh;
    location    "constant/triSurface";
    object      inlet.eMesh;
}
// * * * * * * * * * * * * * * * * * * * * * * * * * * * * * * * * * * * * * //


// points:

118
(
(-24.503 167.566 -105.989)
(-24.5338 167.89 -106.054)
(-15.3369 172.384 -99.4547)
(-15.2139 172.105 -99.3231)
(-15.0686 167.016 -98.5591)
(-15.1751 166.705 -98.6025)
(-15.6196 172.911 -99.7425)
(-15.4721 172.653 -99.5944)
(-16.7231 174.199 -100.768)
(-16.5154 174.018 -100.583)
(-23.631 164.93 -104.971)
(-23.7786 165.188 -105.119)
(-18.798 162.911 -100.943)
(-19.0575 162.839 -101.137)
(-15.7782 173.157 -99.8977)
(-24.3551 170.187 -106.208)
(-24.2755 170.507 -106.187)
(-15.569 165.813 -98.7956)
(-15.7232 165.532 -98.88)
(-24.1818 170.824 -106.155)
(-16.3169 173.822 -100.403)
(-14.9752 167.333 -98.5268)
(-16.8649 164.074 -99.5841)
(-17.0863 163.875 -99.7315)
(-16.1273 173.613 -100.228)
(-16.4463 164.511 -99.3135)
(-16.6516 164.286 -99.4448)
(-23.8246 171.737 -105.993)
(-23.6814 172.027 -105.918)
(-22.0882 163.326 -103.563)
(-22.312 163.476 -103.757)
(-17.3932 174.647 -101.348)
(-17.1627 174.514 -101.151)
(-21.936 174.149 -104.828)
(-21.701 174.318 -104.666)
(-22.3854 173.766 -105.129)
(-22.1635 173.964 -104.982)
(-23.1862 172.842 -105.636)
(-22.9998 173.092 -105.522)
(-20.1049 162.722 -101.939)
(-20.3654 162.738 -102.144)
(-22.5988 173.555 -105.269)
(-24.458 167.247 -105.913)
(-20.9648 174.736 -104.145)
(-20.7106 174.841 -103.96)
(-24.4211 169.861 -106.218)
(-14.8507 170.909 -98.8868)
(-14.7924 170.594 -98.8011)
(-24.5389 168.875 -106.184)
(-24.5132 169.205 -106.206)
(-14.7172 169.951 -98.6602)
(-14.701 169.624 -98.6058)
(-15.2946 166.4 -98.6567)
(-15.4258 166.103 -98.721)
(-14.8292 167.979 -98.4955)
(-14.8953 167.654 -98.5055)
(-18.2861 163.104 -100.569)
(-18.5403 162.999 -100.754)
(-17.3139 163.69 -99.8853)
(-17.5492 163.521 -100.047)
(-24.5494 168.217 -106.108)
(-20.6232 162.771 -102.349)
(-17.7893 163.364 -100.215)
(-18.0353 163.227 -100.389)
(-19.5807 162.747 -101.533)
(-19.8434 162.726 -101.735)
(-22.5276 163.642 -103.946)
(-22.7353 163.823 -104.131)
(-23.914 165.456 -105.259)
(-24.0365 165.735 -105.391)
(-19.3189 162.784 -101.333)
(-14.9223 171.219 -98.9823)
(-24.1464 166.023 -105.513)
(-23.4725 164.684 -104.816)
(-15.104 171.818 -99.2006)
(-16.2505 164.749 -99.1911)
(-23.9558 171.44 -106.057)
(-24.5509 168.545 -106.151)
(-23.5272 172.308 -105.834)
(-23.3618 172.58 -105.739)
(-17.873 174.866 -101.75)
(-17.6306 174.765 -101.548)
(-22.8042 173.329 -105.4)
(-20.8786 162.822 -102.555)
(-14.7475 170.274 -98.7252)
(-21.2154 174.613 -104.325)
(-20.4528 174.929 -103.771)
(-20.1934 175.001 -103.577)
(-15.0067 171.521 -99.0869)
(-21.4609 174.474 -104.499)
(-24.4739 169.534 -106.217)
(-24.3998 166.932 -105.827)
(-19.4075 175.114 -102.979)
(-19.146 175.117 -102.775)
(-15.8885 165.26 -98.9742)
(-16.0642 164.999 -99.0779)
(-24.0752 171.135 -106.111)
(-23.1234 164.227 -104.486)
(-23.3029 164.449 -104.654)
(-21.8576 163.193 -103.366)
(-22.9338 164.018 -104.311)
(-24.2439 166.319 -105.627)
(-24.3283 166.622 -105.732)
(-14.6993 169.295 -98.5624)
(-21.6202 163.076 -103.166)
(-14.7373 168.636 -98.5078)
(-14.7766 168.306 -98.4963)
(-16.9388 174.364 -100.957)
(-21.3778 162.975 -102.964)
(-21.13 162.89 -102.76)
(-14.7116 168.965 -98.5298)
(-19.9319 175.056 -103.381)
(-19.67 175.094 -103.181)
(-18.8854 175.103 -102.57)
(-18.6276 175.069 -102.365)
(-15.9478 173.391 -100.06)
(-18.3722 175.018 -102.159)
(-18.1208 174.95 -101.954)
)


// edges:

118
(
(0 1)
(2 3)
(4 5)
(6 7)
(8 9)
(10 11)
(12 13)
(14 6)
(15 16)
(17 18)
(16 19)
(9 20)
(21 4)
(22 23)
(20 24)
(25 26)
(27 28)
(29 30)
(31 32)
(33 34)
(35 36)
(37 38)
(39 40)
(41 35)
(36 33)
(42 0)
(43 44)
(45 15)
(46 47)
(48 49)
(50 51)
(5 52)
(53 17)
(54 55)
(56 57)
(58 59)
(1 60)
(40 61)
(62 63)
(64 65)
(66 67)
(68 69)
(70 64)
(55 21)
(71 46)
(69 72)
(73 10)
(3 74)
(75 25)
(57 12)
(76 27)
(60 77)
(28 78)
(79 37)
(52 53)
(80 81)
(82 41)
(63 56)
(61 83)
(13 70)
(84 50)
(85 43)
(86 87)
(74 88)
(34 89)
(90 45)
(91 42)
(11 68)
(92 93)
(94 95)
(96 76)
(97 98)
(99 29)
(59 62)
(78 79)
(67 100)
(88 71)
(72 101)
(102 91)
(98 73)
(101 102)
(77 48)
(51 103)
(100 97)
(104 99)
(105 106)
(107 8)
(108 104)
(30 66)
(109 108)
(83 109)
(65 39)
(7 2)
(23 58)
(95 75)
(106 54)
(110 105)
(47 84)
(103 110)
(19 96)
(49 90)
(38 82)
(89 85)
(18 94)
(44 86)
(87 111)
(111 112)
(93 113)
(112 92)
(113 114)
(81 31)
(115 14)
(116 117)
(114 116)
(117 80)
(32 107)
(26 22)
(24 115)
)

// * * * * * * * * * * * * * * * * * * * * * * * * * * * * * * * * * * * * * //


// ************************************************************************* //
