/*--------------------------------*- C++ -*----------------------------------*\
  =========                 |
  \\      /  F ield         | OpenFOAM: The Open Source CFD Toolbox
   \\    /   O peration     | Website:  https://openfoam.org
    \\  /    A nd           | Version:  6
     \\/     M anipulation  |
\*---------------------------------------------------------------------------*/
FoamFile
{
    version     2.0;
    format      ascii;
    class       featureEdgeMesh;
    location    "constant/triSurface";
    object      outlet4.eMesh;
}
// * * * * * * * * * * * * * * * * * * * * * * * * * * * * * * * * * * * * * //


// points:

208
(
(1.31194 188.592 -163.172)
(0.684344 188.439 -163.123)
(0.854301 189.208 -163.306)
(-1.68362 193.252 -164.189)
(-2.29071 193.516 -164.237)
(-1.86547 193.767 -164.305)
(-2.34443 192.891 -164.091)
(-0.849149 191.908 -163.896)
(-1.79625 192.214 -163.946)
(-0.927041 192.767 -164.093)
(-2.55032 192.292 -163.947)
(-0.625787 193.28 -164.219)
(-1.13775 193.424 -164.242)
(-0.108967 192.304 -164.004)
(-3.78629 191.236 -163.674)
(-2.99462 191.314 -163.71)
(-3.28214 190.607 -163.539)
(-1.90193 190.452 -163.534)
(-1.76757 189.594 -163.337)
(-2.66484 190.049 -163.423)
(-3.54596 189.862 -163.36)
(-3.03278 189.459 -163.278)
(-2.01275 188.722 -163.129)
(-2.48595 189.346 -163.263)
(-5.07227 189.397 -163.218)
(-4.51943 188.996 -163.137)
(-5.29094 188.571 -163.021)
(-5.64921 189.22 -163.164)
(-3.37805 188.404 -163.025)
(-2.9115 188.873 -163.144)
(-2.77147 188.122 -162.973)
(-2.76022 186.524 -162.601)
(-2.76147 187.329 -162.788)
(-1.97053 186.885 -162.703)
(-1.15424 190.394 -163.537)
(-3.25481 191.983 -163.86)
(-2.50669 191.687 -163.807)
(-4.19172 190.404 -163.472)
(-2.94214 192.648 -164.021)
(-3.52861 192.64 -164.006)
(-2.20901 186.367 -162.577)
(-4.27186 189.633 -163.291)
(-3.74725 189.075 -163.172)
(-2.52645 190.857 -163.614)
(-5.71583 190.55 -163.472)
(-5.0709 190.58 -163.493)
(-5.64991 189.866 -163.314)
(-0.210709 192.963 -164.155)
(-0.266869 193.332 -164.24)
(-4.87333 189.949 -163.351)
(-0.103031 188.261 -163.064)
(0.205457 188.868 -163.212)
(-3.03727 193.304 -164.171)
(0.0160452 189.501 -163.355)
(-4.20538 188.219 -162.963)
(-3.51548 187.715 -162.861)
(1.05608 188.031 -163.036)
(1.25024 187.909 -163.012)
(1.1358 187.74 -162.97)
(-4.64295 191.292 -163.668)
(0.876914 192.453 -164.061)
(1.02536 192.279 -164.023)
(0.744301 192.093 -163.974)
(-1.6576 191.199 -163.713)
(0.45891 187.604 -162.924)
(1.01174 187.576 -162.93)
(-4.29654 187.343 -162.758)
(-3.52347 186.838 -162.657)
(-1.25977 187.343 -162.825)
(-0.414941 187.451 -162.869)
(-0.971654 186.68 -162.677)
(-1.12568 188.224 -163.033)
(0.339789 190.92 -163.692)
(0.704389 191.427 -163.818)
(1.22472 190.943 -163.717)
(-0.0214402 191.638 -163.851)
(-2.02194 187.744 -162.901)
(-0.529786 188.958 -163.217)
(0.358653 192.667 -164.099)
(-5.28422 187.771 -162.835)
(-5.39866 187.941 -162.872)
(-4.94293 187.839 -162.858)
(-0.558627 191.036 -163.699)
(1.21673 191.546 -163.857)
(-4.57661 187.023 -162.677)
(-4.73355 187.159 -162.705)
(1.52018 189.163 -163.31)
(1.77902 189.225 -163.33)
(1.7355 189.026 -163.283)
(1.35531 188.084 -163.055)
(-3.88204 186.571 -162.587)
(-4.06509 186.67 -162.606)
(-3.98434 186.847 -162.649)
(-3.50197 193.517 -164.211)
(-3.30583 193.585 -164.231)
(-4.24153 193.146 -164.108)
(-4.30584 192.731 -164.01)
(-4.41261 193.03 -164.077)
(-0.751109 189.631 -163.368)
(-1.26494 189.042 -163.22)
(-4.90205 192.136 -163.858)
(-4.07285 191.986 -163.842)
(-5.88408 190.878 -163.544)
(-5.82973 191.074 -163.591)
(-5.49221 191.125 -163.61)
(-5.99374 189.869 -163.307)
(-5.99354 190.073 -163.355)
(-5.98235 190.276 -163.402)
(-2.07421 193.776 -164.303)
(-1.45062 193.719 -164.303)
(-2.28255 193.77 -164.297)
(-2.49074 193.752 -164.288)
(-0.454069 193.423 -164.256)
(0.428001 192.88 -164.15)
(0.585054 192.745 -164.122)
(0.734686 192.603 -164.092)
(-1.65768 193.748 -164.305)
(-2.9028 193.689 -164.264)
(-2.69744 193.725 -164.277)
(1.1644 192.093 -163.983)
(1.2852 191.905 -163.942)
(1.40471 191.695 -163.896)
(1.50755 191.488 -163.85)
(1.73566 190.84 -163.705)
(1.49543 190.455 -163.61)
(1.84531 189.831 -163.472)
(1.83406 189.628 -163.425)
(1.50427 189.809 -163.46)
(-0.271164 190.234 -163.519)
(-5.82938 188.867 -163.078)
(-5.02611 187.45 -162.766)
(-5.16016 187.607 -162.8)
(-4.41318 186.896 -162.651)
(-3.69423 186.481 -162.57)
(-3.10583 186.271 -162.535)
(-3.30558 186.331 -162.544)
(0.0933668 186.758 -162.719)
(0.160335 187.081 -162.796)
(0.264259 186.874 -162.75)
(-2.69762 186.184 -162.524)
(-2.90266 186.223 -162.528)
(-2.25957 186.135 -162.522)
(-2.49059 186.155 -162.521)
(-1.69722 186.363 -162.587)
(-2.0272 186.129 -162.526)
(-0.267486 186.814 -162.724)
(-0.0835068 186.651 -162.69)
(-0.646252 186.387 -162.616)
(-0.453859 186.465 -162.639)
(-0.864702 186.312 -162.594)
(-1.09165 186.248 -162.574)
(-1.34631 186.195 -162.556)
(-5.15945 192.327 -163.897)
(-5.02535 192.482 -163.936)
(1.53845 188.449 -163.144)
(1.45108 188.264 -163.099)
(-5.96018 189.464 -163.214)
(-5.98249 189.666 -163.26)
(-1.58999 186.159 -162.542)
(-1.81593 186.137 -162.532)
(0.585118 187.133 -162.817)
(0.428183 186.999 -162.782)
(-0.266382 186.553 -162.663)
(1.68095 188.83 -163.236)
(1.61536 188.637 -163.19)
(-3.50217 186.401 -162.556)
(-5.25414 191.652 -163.738)
(-5.9602 190.478 -163.45)
(-5.92734 190.679 -163.497)
(-5.50335 191.819 -163.772)
(-5.39895 191.995 -163.815)
(-5.59946 191.639 -163.728)
(-5.28489 192.165 -163.857)
(-5.88392 189.064 -163.122)
(1.83392 190.237 -163.567)
(-5.5995 188.299 -162.951)
(-5.68688 188.484 -162.992)
(-5.50375 188.118 -162.911)
(-4.88306 187.301 -162.735)
(-3.69436 193.438 -164.188)
(-3.77124 193.169 -164.124)
(-3.88187 193.35 -164.164)
(-3.10559 193.642 -164.249)
(-0.0837876 193.233 -164.221)
(0.0931059 193.125 -164.199)
(-1.04242 193.632 -164.292)
(-0.8426 193.573 -164.283)
(-1.24563 193.681 -164.299)
(0.264173 193.007 -164.176)
(-0.646565 193.502 -164.271)
(-4.06465 193.253 -164.137)
(1.59868 191.273 -163.802)
(1.67468 191.058 -163.754)
(1.81175 189.426 -163.377)
(0.757732 190.138 -163.52)
(0.734637 187.274 -162.853)
(-5.76327 191.266 -163.637)
(0.877686 187.421 -162.891)
(-5.76379 188.674 -163.034)
(-4.57643 192.905 -164.045)
(-4.24179 186.779 -162.628)
(-4.73348 192.771 -164.01)
(-4.88311 192.63 -163.974)
(1.7789 190.641 -163.659)
(1.81177 190.44 -163.613)
(1.84511 190.034 -163.52)
(-5.68644 191.455 -163.683)
(-5.92745 189.263 -163.168)
)


// edges:

505
(
(9 12)
(19 21)
(30 28)
(11 48)
(48 47)
(29 21)
(3 12)
(62 60)
(56 65)
(78 62)
(88 86)
(106 46)
(4 108)
(123 124)
(126 127)
(129 27)
(26 129)
(131 81)
(31 134)
(137 138)
(31 139)
(144 40)
(143 144)
(70 148)
(46 156)
(145 148)
(137 160)
(164 0)
(165 67)
(44 167)
(100 172)
(124 174)
(176 26)
(180 181)
(93 180)
(182 52)
(47 183)
(186 12)
(12 187)
(188 47)
(189 11)
(86 127)
(104 171)
(64 197)
(96 199)
(66 200)
(100 202)
(127 205)
(27 207)
(66 178)
(4 5)
(11 9)
(47 11)
(23 29)
(52 4)
(9 3)
(29 42)
(55 54)
(58 56)
(61 62)
(64 56)
(81 79)
(76 32)
(85 66)
(91 92)
(94 52)
(96 97)
(23 19)
(104 102)
(46 105)
(46 107)
(107 44)
(11 112)
(52 117)
(62 115)
(127 125)
(81 130)
(66 132)
(67 133)
(135 31)
(140 31)
(142 40)
(40 143)
(147 70)
(100 152)
(153 100)
(100 96)
(0 154)
(157 46)
(159 143)
(161 137)
(162 145)
(143 70)
(31 142)
(0 163)
(104 166)
(173 27)
(179 180)
(184 47)
(11 186)
(193 86)
(127 193)
(64 195)
(196 104)
(198 26)
(92 66)
(100 166)
(96 201)
(124 203)
(204 124)
(1 2)
(5 3)
(6 4)
(3 6)
(7 8)
(6 8)
(8 10)
(13 7)
(15 16)
(17 18)
(18 19)
(19 17)
(21 20)
(18 22)
(26 24)
(25 26)
(27 24)
(28 29)
(33 31)
(32 33)
(17 34)
(34 18)
(15 35)
(37 16)
(38 6)
(35 39)
(38 35)
(40 31)
(33 40)
(41 20)
(42 41)
(15 43)
(41 37)
(46 44)
(44 45)
(37 49)
(49 45)
(21 23)
(6 52)
(49 24)
(46 49)
(47 9)
(42 21)
(24 41)
(41 25)
(2 51)
(53 2)
(54 28)
(35 10)
(56 57)
(14 37)
(37 59)
(63 34)
(17 63)
(65 64)
(28 42)
(30 32)
(55 30)
(66 55)
(67 66)
(68 69)
(54 25)
(69 71)
(73 74)
(62 73)
(75 62)
(71 68)
(77 50)
(71 77)
(13 78)
(64 1)
(30 76)
(75 72)
(75 7)
(31 67)
(66 84)
(51 77)
(77 53)
(86 87)
(30 22)
(56 89)
(41 49)
(92 90)
(52 93)
(95 96)
(98 77)
(77 99)
(101 59)
(103 104)
(71 22)
(22 99)
(104 44)
(44 102)
(109 12)
(110 4)
(114 78)
(118 52)
(13 47)
(120 62)
(62 119)
(83 121)
(62 83)
(74 123)
(98 34)
(34 128)
(54 66)
(90 67)
(40 141)
(145 136)
(149 70)
(151 70)
(35 101)
(96 101)
(99 18)
(143 151)
(145 137)
(45 59)
(63 43)
(166 59)
(69 137)
(33 76)
(68 33)
(27 156)
(166 169)
(166 171)
(63 8)
(7 63)
(174 127)
(3 8)
(26 175)
(177 26)
(81 178)
(128 194)
(39 180)
(78 188)
(2 86)
(180 96)
(137 64)
(202 96)
(194 2)
(124 194)
(82 7)
(82 34)
(72 194)
(14 35)
(206 104)
(29 22)
(43 17)
(54 26)
(70 33)
(2 127)
(92 200)
(0 1)
(2 0)
(3 4)
(9 7)
(8 9)
(10 6)
(12 11)
(9 13)
(16 14)
(14 15)
(20 19)
(23 18)
(22 23)
(24 25)
(26 27)
(29 30)
(31 32)
(35 36)
(36 15)
(20 37)
(16 20)
(10 38)
(39 38)
(20 42)
(43 16)
(45 46)
(45 37)
(51 1)
(50 51)
(1 50)
(39 52)
(52 38)
(24 46)
(27 46)
(51 53)
(28 55)
(10 36)
(59 14)
(32 55)
(55 67)
(69 70)
(70 68)
(25 42)
(42 54)
(71 50)
(50 69)
(72 73)
(74 72)
(73 75)
(76 71)
(68 76)
(50 64)
(64 69)
(62 13)
(1 56)
(80 81)
(72 82)
(82 75)
(73 83)
(83 74)
(13 75)
(67 32)
(22 76)
(0 56)
(99 98)
(100 101)
(59 100)
(19 16)
(43 19)
(99 71)
(3 109)
(4 111)
(78 113)
(115 78)
(3 116)
(47 78)
(122 83)
(124 74)
(36 43)
(128 98)
(81 54)
(66 81)
(80 26)
(26 81)
(136 137)
(146 145)
(70 150)
(101 39)
(18 98)
(155 0)
(120 83)
(92 67)
(158 143)
(70 145)
(36 63)
(67 135)
(59 104)
(104 45)
(145 69)
(168 44)
(170 166)
(96 39)
(72 128)
(128 82)
(0 89)
(127 124)
(118 4)
(12 185)
(190 180)
(180 95)
(192 74)
(74 191)
(53 128)
(194 53)
(160 64)
(180 52)
(0 86)
(86 163)
(170 100)
(53 98)
(191 83)
(8 36)
(194 74)
(63 82)
(127 194)
(14 101)
(143 33)
(57 58)
(60 61)
(79 80)
(84 85)
(87 88)
(58 65)
(89 57)
(90 91)
(93 94)
(97 95)
(102 103)
(105 106)
(108 5)
(111 110)
(112 48)
(113 114)
(114 115)
(116 109)
(117 118)
(115 60)
(119 120)
(121 122)
(125 126)
(130 131)
(132 84)
(133 90)
(134 135)
(138 136)
(139 140)
(141 142)
(136 146)
(148 147)
(147 149)
(150 151)
(152 153)
(154 155)
(156 157)
(151 158)
(158 159)
(149 150)
(160 161)
(146 162)
(161 138)
(162 148)
(144 141)
(142 139)
(140 134)
(163 164)
(159 144)
(135 165)
(167 168)
(106 107)
(169 170)
(171 169)
(172 152)
(129 173)
(175 176)
(80 177)
(178 130)
(181 179)
(179 93)
(94 182)
(182 117)
(118 111)
(183 184)
(185 186)
(187 185)
(184 188)
(186 189)
(189 112)
(110 108)
(109 187)
(5 116)
(95 190)
(168 102)
(191 192)
(164 154)
(195 160)
(103 196)
(197 195)
(65 197)
(188 113)
(176 198)
(190 181)
(199 97)
(200 132)
(201 199)
(61 119)
(48 183)
(88 163)
(120 121)
(192 123)
(203 204)
(122 191)
(123 203)
(204 174)
(205 125)
(193 87)
(196 206)
(155 89)
(174 205)
(206 171)
(107 167)
(157 105)
(207 156)
(173 207)
(198 129)
(177 175)
(131 79)
(126 193)
(85 178)
(165 133)
(91 200)
(170 172)
(153 202)
(202 201)
)

// * * * * * * * * * * * * * * * * * * * * * * * * * * * * * * * * * * * * * //


// ************************************************************************* //
