/*--------------------------------*- C++ -*----------------------------------*\
  =========                 |
  \\      /  F ield         | OpenFOAM: The Open Source CFD Toolbox
   \\    /   O peration     | Website:  https://openfoam.org
    \\  /    A nd           | Version:  6
     \\/     M anipulation  |
\*---------------------------------------------------------------------------*/
FoamFile
{
    version     2.0;
    format      ascii;
    class       featureEdgeMesh;
    location    "constant/triSurface";
    object      outlet2.eMesh;
}
// * * * * * * * * * * * * * * * * * * * * * * * * * * * * * * * * * * * * * //


// points:

105
(
(-5.79125 180.975 -56.1966)
(-6.24086 180.173 -56.2566)
(-5.34987 180.42 -56.1084)
(-6.44778 183.448 -56.3637)
(-6.11045 183.69 -56.3108)
(-6.29474 183.697 -56.3427)
(-7.02772 179.584 -56.3793)
(-6.33345 179.347 -56.2545)
(-5.941 182.474 -56.2551)
(-5.07727 182.961 -56.1169)
(-5.80956 183.274 -56.2499)
(-4.54777 182.295 -56.0112)
(-5.35015 182.148 -56.1462)
(-5.92767 181.675 -56.2354)
(-6.67293 181.876 -56.3682)
(-4.51153 180.58 -55.9675)
(-4.9334 179.872 -56.0247)
(-6.17499 179.101 -56.2218)
(-5.99782 179.114 -56.1916)
(-7.37493 181.383 -56.4783)
(-8.11198 180.916 -56.5951)
(-7.2544 180.439 -56.437)
(-5.57852 179.487 -56.1275)
(-6.58327 181.088 -56.3355)
(-7.44755 182.199 -56.5087)
(-4.03434 180.945 -55.8933)
(-4.28352 181.446 -55.9471)
(-6.7165 182.513 -56.3896)
(-6.40957 182.952 -56.3463)
(-7.17659 183.089 -56.4814)
(-5.13043 181.334 -56.0906)
(-8.34081 180.497 -56.6254)
(-8.0033 180.325 -56.5635)
(-4.00673 181.141 -55.8928)
(-3.99258 181.339 -55.8947)
(-8.47355 181.835 -56.6775)
(-8.50613 181.639 -56.6788)
(-8.17528 181.671 -56.6225)
(-8.04329 179.982 -56.5629)
(-8.15574 180.138 -56.5857)
(-4.08104 180.756 -55.8972)
(-7.62071 179.839 -56.487)
(-4.45074 180.016 -55.9447)
(-4.33169 180.184 -55.9279)
(-4.23627 180.359 -55.9153)
(-8.11834 182.257 -56.6255)
(-7.83785 182.717 -56.5872)
(-3.99204 181.517 -55.8985)
(-4.00944 181.709 -55.9056)
(-8.51882 181.449 -56.6769)
(-8.29342 182.386 -56.6585)
(-8.37031 182.21 -56.6679)
(-8.49552 181.063 -56.6644)
(-8.46214 180.866 -56.6544)
(-8.51421 181.265 -56.6721)
(-4.04278 181.89 -55.9153)
(-4.1493 182.252 -55.9416)
(-4.22507 182.422 -55.9583)
(-8.4078 180.679 -56.6409)
(-8.42794 182.031 -56.6739)
(-4.08641 182.065 -55.9267)
(-4.31753 182.59 -55.9779)
(-5.81086 179.146 -56.1601)
(-8.25196 180.304 -56.6059)
(-4.53434 182.897 -56.022)
(-4.41322 182.742 -55.9977)
(-4.15002 180.561 -55.9048)
(-4.87495 179.579 -56.0083)
(-4.73063 179.702 -55.9861)
(-5.02024 179.478 -56.0311)
(-5.6401 179.19 -56.1316)
(-6.54776 179.117 -56.2864)
(-6.35288 179.102 -56.2525)
(-6.73288 179.149 -56.319)
(-7.09799 179.26 -56.3843)
(-6.9127 179.197 -56.351)
(-7.28042 179.344 -56.4176)
(-7.45549 179.446 -56.45)
(-7.6285 179.565 -56.4824)
(-4.58774 179.849 -55.9647)
(-7.77955 179.69 -56.5111)
(-7.91974 179.834 -56.5384)
(-4.68534 183.055 -56.0514)
(-4.83325 183.19 -56.0799)
(-7.7112 183.149 -56.5748)
(-7.56655 183.265 -56.5524)
(-4.99779 183.314 -56.1109)
(-7.85364 183.014 -56.5964)
(-7.9878 182.87 -56.6164)
(-8.19982 182.56 -56.6462)
(-6.49335 183.679 -56.3766)
(-6.69154 183.646 -56.41)
(-8.09524 182.728 -56.6318)
(-5.16195 183.412 -56.1413)
(-5.32 183.489 -56.1703)
(-7.40162 183.372 -56.5263)
(-7.22532 183.465 -56.498)
(-5.90928 183.666 -56.2756)
(-6.87179 183.605 -56.4402)
(-5.69424 183.625 -56.2377)
(-5.17181 179.383 -56.0551)
(-5.32112 179.305 -56.0792)
(-5.47011 179.244 -56.1035)
(-5.49949 183.567 -56.2029)
(-7.05352 183.544 -56.4701)
)


// edges:

238
(
(1 2)
(2 0)
(5 3)
(7 1)
(6 7)
(8 9)
(10 8)
(9 10)
(9 12)
(11 9)
(8 12)
(8 13)
(8 14)
(15 2)
(2 16)
(7 17)
(19 20)
(7 22)
(23 0)
(13 23)
(23 1)
(19 14)
(24 19)
(26 15)
(8 27)
(28 29)
(29 27)
(3 29)
(26 30)
(30 2)
(19 23)
(32 20)
(31 32)
(26 33)
(36 37)
(38 32)
(41 6)
(2 22)
(22 16)
(42 15)
(16 42)
(46 45)
(48 26)
(12 30)
(45 50)
(20 52)
(55 11)
(26 55)
(57 11)
(58 20)
(37 19)
(37 45)
(59 37)
(45 59)
(29 46)
(20 37)
(22 18)
(11 65)
(15 66)
(68 16)
(69 16)
(70 22)
(7 71)
(75 6)
(6 74)
(77 41)
(80 41)
(41 38)
(82 9)
(86 9)
(46 87)
(91 3)
(46 92)
(46 84)
(10 4)
(93 9)
(29 95)
(10 97)
(22 100)
(22 102)
(10 103)
(104 29)
(0 1)
(3 4)
(1 6)
(12 11)
(13 12)
(14 13)
(16 15)
(18 7)
(20 21)
(21 19)
(22 1)
(0 13)
(14 24)
(15 25)
(25 26)
(27 14)
(27 28)
(8 28)
(3 28)
(28 10)
(10 3)
(24 27)
(29 24)
(30 15)
(11 30)
(26 11)
(23 14)
(20 31)
(34 26)
(37 35)
(32 39)
(15 40)
(21 41)
(6 21)
(32 21)
(21 1)
(23 21)
(15 43)
(44 15)
(24 46)
(45 24)
(26 47)
(49 37)
(51 45)
(53 20)
(20 54)
(11 56)
(24 37)
(60 11)
(61 11)
(37 54)
(62 22)
(32 63)
(30 0)
(64 11)
(16 67)
(22 69)
(72 7)
(6 73)
(73 7)
(6 76)
(6 77)
(41 78)
(16 79)
(41 81)
(32 41)
(9 64)
(83 9)
(29 85)
(84 29)
(88 46)
(46 89)
(89 45)
(3 90)
(94 10)
(9 94)
(29 96)
(3 98)
(98 29)
(10 99)
(22 101)
(30 13)
(4 5)
(17 18)
(33 34)
(35 36)
(39 38)
(40 25)
(43 44)
(47 48)
(36 49)
(50 51)
(52 53)
(54 52)
(56 57)
(53 58)
(55 60)
(57 61)
(58 31)
(18 62)
(63 39)
(42 43)
(34 47)
(65 64)
(66 40)
(48 55)
(67 68)
(62 70)
(71 72)
(74 75)
(75 73)
(76 74)
(72 17)
(77 76)
(78 77)
(79 42)
(81 80)
(31 63)
(38 81)
(44 66)
(25 33)
(59 35)
(64 82)
(82 83)
(85 84)
(83 86)
(87 88)
(90 91)
(92 89)
(84 87)
(86 93)
(95 85)
(96 95)
(97 4)
(99 97)
(49 54)
(68 79)
(69 67)
(100 69)
(101 100)
(102 101)
(70 102)
(73 71)
(80 78)
(61 65)
(60 56)
(89 50)
(51 59)
(103 99)
(94 103)
(91 98)
(98 104)
(5 90)
(104 96)
(93 94)
(88 92)
)

// * * * * * * * * * * * * * * * * * * * * * * * * * * * * * * * * * * * * * //


// ************************************************************************* //
