/*--------------------------------*- C++ -*----------------------------------*\
  =========                 |
  \\      /  F ield         | OpenFOAM: The Open Source CFD Toolbox
   \\    /   O peration     | Website:  https://openfoam.org
    \\  /    A nd           | Version:  6
     \\/     M anipulation  |
\*---------------------------------------------------------------------------*/
FoamFile
{
    version     2.0;
    format      ascii;
    class       featureEdgeMesh;
    location    "constant/triSurface";
    object      outlet3.eMesh;
}
// * * * * * * * * * * * * * * * * * * * * * * * * * * * * * * * * * * * * * //


// points:

74
(
(1.29638 184.163 -59.8837)
(1.38688 184.359 -59.8898)
(1.44389 187.102 -58.6308)
(1.36454 187.214 -58.4886)
(1.46952 184.567 -59.8811)
(1.53995 184.772 -59.8607)
(-1.60059 183.97 -56.7584)
(-1.57793 183.798 -56.8666)
(-1.54727 183.64 -56.9766)
(1.07237 183.77 -59.824)
(1.18387 183.953 -59.8596)
(1.72308 185.854 -59.5425)
(1.72087 186.034 -59.4535)
(-0.729743 182.565 -58.4031)
(-0.6213 182.546 -58.5328)
(-0.502406 182.544 -58.6658)
(1.50865 186.983 -58.7602)
(1.09123 187.468 -58.0624)
(0.975762 187.53 -57.9045)
(1.27872 187.313 -58.3459)
(0.849867 187.569 -57.7458)
(0.711127 187.588 -57.5827)
(-1.41543 185.496 -56.2283)
(-1.4897 185.245 -56.267)
(0.308616 187.532 -57.1623)
(0.173558 187.477 -57.039)
(0.446776 187.57 -57.2975)
(0.0318367 187.405 -56.9164)
(-0.118756 187.314 -56.7929)
(-0.267398 187.208 -56.6786)
(1.71316 185.66 -59.6252)
(-0.413793 187.085 -56.5752)
(-1.50397 183.473 -57.1052)
(0.942099 183.577 -59.7724)
(1.60434 184.999 -59.8229)
(0.816016 183.414 -59.7109)
(-1.39987 183.205 -57.3501)
(-1.33365 183.079 -57.4845)
(0.681291 183.258 -59.6367)
(-0.557047 186.947 -56.4827)
(-1.16906 182.847 -57.779)
(-1.06095 182.744 -57.9488)
(1.65259 185.226 -59.7671)
(0.54643 183.116 -59.555)
(-1.25925 182.96 -57.6242)
(-0.689407 186.805 -56.4043)
(-0.811571 186.657 -56.3397)
(-0.94815 182.663 -58.113)
(-0.366337 182.561 -58.8084)
(-0.214063 182.602 -58.9582)
(0.11875 182.769 -59.2472)
(0.268968 182.876 -59.3628)
(-0.0453382 182.674 -59.111)
(-0.933994 186.489 -56.2845)
(-1.03664 186.33 -56.2476)
(-1.60413 184.568 -56.4662)
(-1.61468 184.349 -56.5602)
(1.68991 185.454 -59.6984)
(-1.5778 184.792 -56.3876)
(-1.54036 185.018 -56.3202)
(-1.61305 184.152 -56.657)
(-1.13975 186.151 -56.2192)
(-1.24198 185.946 -56.2044)
(-1.33454 185.726 -56.2077)
(-0.840115 182.603 -58.262)
(0.414733 182.994 -59.4678)
(-1.45407 183.329 -57.2299)
(0.580061 187.587 -57.4373)
(1.19163 187.394 -58.2101)
(1.66348 186.537 -59.1469)
(1.62026 186.692 -59.0243)
(1.56551 186.849 -58.8879)
(1.69472 186.369 -59.2628)
(1.71109 186.203 -59.3609)
)


// edges:

74
(
(0 1)
(2 3)
(4 5)
(6 7)
(1 4)
(7 8)
(9 10)
(11 12)
(13 14)
(14 15)
(16 2)
(17 18)
(3 19)
(20 21)
(22 23)
(24 25)
(26 24)
(25 27)
(27 28)
(28 29)
(30 11)
(29 31)
(8 32)
(33 9)
(5 34)
(35 33)
(36 37)
(38 35)
(31 39)
(40 41)
(34 42)
(43 38)
(37 44)
(45 46)
(44 40)
(41 47)
(48 49)
(50 51)
(52 50)
(53 54)
(55 56)
(42 57)
(58 55)
(59 58)
(60 6)
(23 59)
(61 62)
(63 22)
(57 30)
(54 61)
(39 45)
(64 13)
(15 48)
(49 52)
(47 64)
(65 43)
(66 36)
(51 65)
(32 66)
(10 0)
(56 60)
(62 63)
(46 53)
(21 67)
(67 26)
(18 20)
(68 17)
(19 68)
(69 70)
(71 16)
(70 71)
(72 69)
(12 73)
(73 72)
)

// * * * * * * * * * * * * * * * * * * * * * * * * * * * * * * * * * * * * * //


// ************************************************************************* //
