/*--------------------------------*- C++ -*----------------------------------*\
  =========                 |
  \\      /  F ield         | OpenFOAM: The Open Source CFD Toolbox
   \\    /   O peration     | Website:  https://openfoam.org
    \\  /    A nd           | Version:  6
     \\/     M anipulation  |
\*---------------------------------------------------------------------------*/
FoamFile
{
    version     2.0;
    format      ascii;
    class       featureEdgeMesh;
    location    "constant/triSurface";
    object      outlet1.eMesh;
}
// * * * * * * * * * * * * * * * * * * * * * * * * * * * * * * * * * * * * * //


// points:

188
(
(-18.9634 178.004 -64.5109)
(-19.2229 178.697 -64.7177)
(-19.7588 177.836 -64.7779)
(-23.0551 174.865 -65.5205)
(-22.6939 175.63 -65.5095)
(-23.1895 175.464 -65.666)
(-24.1143 179.945 -66.7247)
(-24.4909 179.274 -66.7564)
(-23.5863 179.503 -66.4588)
(-23.9377 178.836 -66.4819)
(-23.713 176.604 -66.0418)
(-23.6887 177.253 -66.1367)
(-24.2495 176.902 -66.2877)
(-24.2054 177.749 -66.4069)
(-24.9312 177.283 -66.6005)
(-22.1213 179.382 -65.8982)
(-21.9456 179.826 -65.9043)
(-22.4134 179.947 -66.0965)
(-19.9833 178.545 -64.9743)
(-19.8903 179.027 -65.0171)
(-20.4031 178.954 -65.1948)
(-20.1813 179.48 -65.1971)
(-20.8102 176.027 -64.877)
(-21.4564 176.2 -65.1435)
(-21.1876 175.285 -64.8977)
(-23.3112 178.702 -66.2291)
(-22.8586 178.046 -65.9568)
(-22.4933 178.73 -65.9314)
(-20.4018 175.636 -64.6635)
(-23.9172 178.357 -66.3978)
(-23.5663 177.941 -66.2015)
(-20.2382 176.331 -64.7142)
(-19.1793 177.193 -64.461)
(-20.7483 179.373 -65.3895)
(-21.0749 178.92 -65.4375)
(-20.5842 178.17 -65.1363)
(-21.4236 179.591 -65.6738)
(-22.863 179.391 -66.1737)
(-20.6364 179.965 -65.4428)
(-18.8783 178.763 -64.6009)
(-18.8269 178.584 -64.5533)
(-19.5908 179.463 -64.9762)
(-24.8947 176.469 -66.4569)
(-24.1765 176.137 -66.1383)
(-23.3609 176.087 -65.829)
(-23.7231 175.37 -65.8482)
(-23.182 176.894 -65.892)
(-21.8015 180.216 -65.9134)
(-21.2559 174.409 -64.7829)
(-20.6317 174.773 -64.6104)
(-19.9486 174.939 -64.3846)
(-19.7967 175.108 -64.3555)
(-20.1284 175.059 -64.4703)
(-19.3746 176.12 -64.3614)
(-19.1193 176.157 -64.2731)
(-19.0279 176.365 -64.2725)
(-20.0766 180.464 -65.3158)
(-20.2424 180.581 -65.3959)
(-20.0334 180.056 -65.2346)
(-20.4122 180.684 -65.4751)
(-20.5872 180.777 -65.5545)
(-20.5356 180.46 -65.4848)
(-20.7499 180.849 -65.6262)
(-21.1033 180.516 -65.7035)
(-20.2724 174.626 -64.4541)
(-20.1144 174.771 -64.4189)
(-22.4381 174.979 -65.3108)
(-22.4448 174.166 -65.1831)
(-23.1744 177.517 -65.9889)
(-21.7711 178.832 -65.6808)
(-22.5294 177.28 -65.7127)
(-21.9068 174.701 -65.07)
(-21.817 174.111 -64.9425)
(-20.019 177.003 -64.7407)
(-20.4632 177.466 -64.979)
(-21.087 180.964 -65.7691)
(-21.28 181.01 -65.8477)
(-23.7545 174.519 -65.7236)
(-23.6235 174.076 -65.6043)
(-23.2109 174.17 -65.4669)
(-21.9719 176.719 -65.417)
(-22.6488 176.496 -65.6313)
(-21.9417 175.455 -65.2035)
(-22.1382 176.119 -65.3824)
(-24.4024 178.454 -66.5925)
(-21.7595 177.444 -65.4545)
(-22.153 178.047 -65.6962)
(-19.8853 176.038 -64.537)
(-20.8261 176.789 -65.0048)
(-21.0777 177.484 -65.2089)
(-21.414 176.957 -65.2489)
(-19.6847 176.558 -64.5461)
(-21.419 178.117 -65.4363)
(-23.0247 179.926 -66.3191)
(-23.5768 180.242 -66.5736)
(-22.2596 180.702 -66.1605)
(-21.6388 180.768 -65.9416)
(-19.7803 175.556 -64.4211)
(-21.4804 181.043 -65.9271)
(-21.7031 181.061 -66.0123)
(-20.9164 180.912 -65.6977)
(-20.4355 174.492 -64.4929)
(-25.3221 176.599 -66.6355)
(-25.356 176.902 -66.6966)
(-21.9361 181.064 -66.0988)
(-19.6395 175.303 -64.3286)
(-19.4888 175.512 -64.3064)
(-24.2636 174.861 -65.9665)
(-24.2186 174.467 -65.8867)
(-25.0277 175.563 -66.3611)
(-24.7769 175.913 -66.3244)
(-25.1234 175.802 -66.4345)
(-24.5482 175.406 -66.1588)
(-20.7867 174.248 -64.5838)
(-21.5195 173.913 -64.8008)
(-25.207 176.059 -66.5067)
(-25.273 176.324 -66.5734)
(-22.4317 181.013 -66.2739)
(-22.6919 180.958 -66.3612)
(-22.9065 180.539 -66.3734)
(-22.9485 180.883 -66.4439)
(-23.1819 180.796 -66.5162)
(-19.3428 175.741 -64.2891)
(-19.2224 175.956 -64.2789)
(-24.8758 179.301 -66.903)
(-24.9738 179.112 -66.9089)
(-21.3451 173.972 -64.7458)
(-24.9179 178.047 -66.7179)
(-21.8751 173.83 -64.9189)
(-21.6961 173.866 -64.8585)
(-22.2353 173.793 -65.0461)
(-22.0547 173.806 -64.9814)
(-22.5948 173.8 -65.1801)
(-22.4152 173.791 -65.1123)
(-23.3947 180.699 -66.5794)
(-23.5896 180.597 -66.635)
(-23.1224 173.892 -65.3896)
(-22.9489 173.85 -65.319)
(-25.2803 178.184 -66.8738)
(-25.3276 177.901 -66.8458)
(-24.5551 179.777 -66.8606)
(-24.6711 179.625 -66.8791)
(-23.2932 173.943 -65.461)
(-23.4602 174.004 -65.5325)
(-23.9341 174.25 -65.7469)
(-23.7814 174.158 -65.6757)
(-24.7875 175.118 -66.2011)
(-24.9193 175.343 -66.2857)
(-24.0795 174.353 -65.8172)
(-24.6499 174.924 -66.1192)
(-23.7902 180.473 -66.6894)
(-23.9797 180.338 -66.7378)
(-24.879 178.692 -66.8067)
(-19.1953 176.565 -64.3663)
(-19.9008 180.324 -65.2285)
(-24.2996 180.059 -66.8113)
(-24.4314 179.922 -66.8381)
(-25.3706 177.242 -66.7563)
(-25.2193 178.45 -66.8937)
(-24.5069 174.749 -66.0384)
(-19.5607 179.986 -65.0487)
(-19.7268 180.164 -65.1385)
(-20.9702 174.142 -64.6346)
(-24.145 180.202 -66.7771)
(-22.1886 181.047 -66.1894)
(-19.2491 179.564 -64.8661)
(-19.3983 179.784 -64.9564)
(-18.8705 176.809 -64.2854)
(-18.9455 176.576 -64.2758)
(-18.8097 177.039 -64.2998)
(-18.7673 177.252 -64.3182)
(-18.9462 178.957 -64.6571)
(-19.0259 179.15 -64.7173)
(-18.7853 178.402 -64.5088)
(-18.7225 177.652 -64.3657)
(-18.7376 177.462 -64.3408)
(-18.7537 178.217 -64.4676)
(-18.7216 177.842 -64.3956)
(-18.7326 178.031 -64.4299)
(-24.7778 179.466 -66.8932)
(-20.6144 174.36 -64.538)
(-19.1277 179.355 -64.7877)
(-22.7726 173.82 -65.2489)
(-21.1557 174.051 -64.6884)
(-24.3654 174.601 -65.9625)
(-25.0629 178.913 -66.91)
(-25.1461 178.688 -66.9048)
(-25.3595 177.587 -66.8075)
)


// edges:

462
(
(79 136)
(137 79)
(2 0)
(0 1)
(5 3)
(7 8)
(9 8)
(7 9)
(12 10)
(13 14)
(12 13)
(14 12)
(17 15)
(19 20)
(20 18)
(21 20)
(18 1)
(24 22)
(25 26)
(24 28)
(9 29)
(25 9)
(30 26)
(25 30)
(28 31)
(31 22)
(32 0)
(34 35)
(20 34)
(36 34)
(37 8)
(21 38)
(39 1)
(43 12)
(42 43)
(5 44)
(46 10)
(36 47)
(2 18)
(35 2)
(49 24)
(48 49)
(55 53)
(58 56)
(60 61)
(49 28)
(65 52)
(3 67)
(67 66)
(68 26)
(15 69)
(36 15)
(68 46)
(73 2)
(74 73)
(30 13)
(76 63)
(78 79)
(15 37)
(70 81)
(81 80)
(82 71)
(24 82)
(71 24)
(82 66)
(46 81)
(4 81)
(81 44)
(82 83)
(4 82)
(84 13)
(83 81)
(73 32)
(85 86)
(86 70)
(87 31)
(89 90)
(88 89)
(80 90)
(73 31)
(91 73)
(92 86)
(94 8)
(37 17)
(47 96)
(17 47)
(86 26)
(23 90)
(53 87)
(97 53)
(9 84)
(63 100)
(64 49)
(49 101)
(102 42)
(96 104)
(97 105)
(108 77)
(107 108)
(110 111)
(43 112)
(45 43)
(43 10)
(28 97)
(92 89)
(89 35)
(86 69)
(69 34)
(38 36)
(76 96)
(58 38)
(42 116)
(38 61)
(63 38)
(118 95)
(119 95)
(119 120)
(121 119)
(73 88)
(123 53)
(89 85)
(125 7)
(71 67)
(127 14)
(129 72)
(79 67)
(67 130)
(131 67)
(135 94)
(3 77)
(139 127)
(141 7)
(77 45)
(77 144)
(145 77)
(112 147)
(149 112)
(42 14)
(151 94)
(74 89)
(7 84)
(152 84)
(53 153)
(153 91)
(125 152)
(55 153)
(97 51)
(119 94)
(6 155)
(92 34)
(119 17)
(14 157)
(127 158)
(159 107)
(161 58)
(95 164)
(153 32)
(166 41)
(167 153)
(153 168)
(167 32)
(172 1)
(1 173)
(32 175)
(173 0)
(0 177)
(178 0)
(152 158)
(181 1)
(41 181)
(160 41)
(67 182)
(61 58)
(43 110)
(48 183)
(152 185)
(43 44)
(1 2)
(3 4)
(4 5)
(6 7)
(8 6)
(10 11)
(11 12)
(16 17)
(15 16)
(18 19)
(19 21)
(1 19)
(23 24)
(22 23)
(27 25)
(26 27)
(28 22)
(29 25)
(2 32)
(21 33)
(33 20)
(35 20)
(33 36)
(34 33)
(25 37)
(8 25)
(38 33)
(1 40)
(41 19)
(1 41)
(12 42)
(45 5)
(44 45)
(44 46)
(10 44)
(47 16)
(16 36)
(18 35)
(24 48)
(52 50)
(51 52)
(53 54)
(57 58)
(61 59)
(63 61)
(62 63)
(61 62)
(52 64)
(66 3)
(30 68)
(69 36)
(46 70)
(70 68)
(11 46)
(68 11)
(72 48)
(71 72)
(48 71)
(2 74)
(35 74)
(11 30)
(13 11)
(63 75)
(79 77)
(77 78)
(27 15)
(37 27)
(27 69)
(80 70)
(66 71)
(66 4)
(44 4)
(83 4)
(29 84)
(13 29)
(23 80)
(83 23)
(80 83)
(85 70)
(80 85)
(28 87)
(90 88)
(90 85)
(31 91)
(85 92)
(93 8)
(37 93)
(93 94)
(17 93)
(95 47)
(96 95)
(63 96)
(47 63)
(95 17)
(26 70)
(23 88)
(87 97)
(82 23)
(99 96)
(96 98)
(42 103)
(104 95)
(106 97)
(77 107)
(109 110)
(112 45)
(45 3)
(48 113)
(113 49)
(114 48)
(72 114)
(52 97)
(28 52)
(35 92)
(27 86)
(21 58)
(42 115)
(110 42)
(115 110)
(95 117)
(118 119)
(87 91)
(88 31)
(53 122)
(7 124)
(67 72)
(126 48)
(13 127)
(72 128)
(3 79)
(67 132)
(133 67)
(94 134)
(127 138)
(7 140)
(92 69)
(79 142)
(45 107)
(143 79)
(146 112)
(148 77)
(61 57)
(14 103)
(94 150)
(52 49)
(122 97)
(88 74)
(7 152)
(91 53)
(58 154)
(29 30)
(91 32)
(88 22)
(93 119)
(156 6)
(112 109)
(107 149)
(58 160)
(48 162)
(163 6)
(6 151)
(152 127)
(127 84)
(41 21)
(41 165)
(170 32)
(32 169)
(1 171)
(174 32)
(0 176)
(174 0)
(7 179)
(6 140)
(41 58)
(49 180)
(72 131)
(137 67)
(110 112)
(36 63)
(119 134)
(6 94)
(112 107)
(107 184)
(186 152)
(187 14)
(127 187)
(40 39)
(50 51)
(54 55)
(56 57)
(59 60)
(64 65)
(75 76)
(98 99)
(100 75)
(101 64)
(103 102)
(105 106)
(111 109)
(116 115)
(117 118)
(62 100)
(120 121)
(122 123)
(65 50)
(124 125)
(114 126)
(128 129)
(130 131)
(132 133)
(134 135)
(136 137)
(138 139)
(140 141)
(99 104)
(142 136)
(78 143)
(144 145)
(147 146)
(108 148)
(146 149)
(143 142)
(57 59)
(148 144)
(150 151)
(106 122)
(123 54)
(154 56)
(51 105)
(155 156)
(157 103)
(102 116)
(158 138)
(109 147)
(149 159)
(160 161)
(162 113)
(151 163)
(164 117)
(135 150)
(76 98)
(163 155)
(165 166)
(168 167)
(169 170)
(171 172)
(39 171)
(173 40)
(175 174)
(176 173)
(177 178)
(179 124)
(180 101)
(131 128)
(174 177)
(178 176)
(170 175)
(167 169)
(172 181)
(55 168)
(181 165)
(166 160)
(182 132)
(161 154)
(60 62)
(104 164)
(133 130)
(118 120)
(156 140)
(141 179)
(113 180)
(183 162)
(137 182)
(145 78)
(184 108)
(159 184)
(185 186)
(125 185)
(186 158)
(115 111)
(126 183)
(187 157)
(139 187)
(129 114)
(121 134)
)

// * * * * * * * * * * * * * * * * * * * * * * * * * * * * * * * * * * * * * //


// ************************************************************************* //
