/*--------------------------------*- C++ -*----------------------------------*\
  =========                 |
  \\      /  F ield         | OpenFOAM: The Open Source CFD Toolbox
   \\    /   O peration     | Website:  https://openfoam.org
    \\  /    A nd           | Version:  6
     \\/     M anipulation  |
\*---------------------------------------------------------------------------*/
FoamFile
{
    version     2.0;
    format      ascii;
    class       featureEdgeMesh;
    location    "constant/triSurface";
    object      outlet3.eMesh;
}
// * * * * * * * * * * * * * * * * * * * * * * * * * * * * * * * * * * * * * //


// points:

111
(
(-0.056657 183.052 -58.9162)
(-0.0241332 184.039 -58.4764)
(-0.554573 183.332 -58.2277)
(0.717347 184.562 -59.0481)
(0.654612 185.62 -58.4685)
(0.20201 184.866 -58.3289)
(-1.33454 185.726 -56.2077)
(-1.22078 185.287 -56.5455)
(-1.06906 185.983 -56.3786)
(-0.791681 185.771 -56.789)
(-0.357371 186.067 -57.1288)
(-0.72478 186.416 -56.5522)
(0.544566 183.554 -59.3417)
(0.993255 184.034 -59.6091)
(-0.734834 183.927 -57.741)
(-0.996894 184.479 -57.1835)
(-1.31003 183.7 -57.2112)
(-1.04973 183.184 -57.7492)
(-0.372293 184.667 -57.7871)
(-0.059093 185.503 -57.7319)
(0.322581 186.421 -57.7135)
(-0.631196 185.298 -57.1951)
(0.857463 186.443 -58.2971)
(1.20315 186.187 -58.8045)
(1.26776 186.854 -58.5549)
(0.842784 187.236 -57.8983)
(-0.840885 182.876 -58.1295)
(-0.563825 182.776 -58.4857)
(-0.157348 186.965 -56.9183)
(-1.44414 184.185 -56.8285)
(1.51568 186.51 -58.9958)
(1.19904 187.209 -58.3071)
(1.29638 184.163 -59.8837)
(1.29964 184.586 -59.6835)
(1.38688 184.359 -59.8898)
(0.942099 183.577 -59.7724)
(1.44389 187.102 -58.6308)
(1.36454 187.214 -58.4886)
(1.46952 184.567 -59.8811)
(1.53995 184.772 -59.8607)
(0.360301 187.258 -57.3517)
(-1.57793 183.798 -56.8666)
(-1.60059 183.97 -56.7584)
(1.57427 186.09 -59.2636)
(1.69472 186.369 -59.2628)
(-1.54727 183.64 -56.9766)
(1.07237 183.77 -59.824)
(1.18387 183.953 -59.8596)
(1.72308 185.854 -59.5425)
(1.72087 186.034 -59.4535)
(-1.39987 183.205 -57.3501)
(-0.729743 182.565 -58.4031)
(-0.6213 182.546 -58.5328)
(-0.502406 182.544 -58.6658)
(1.50865 186.983 -58.7602)
(1.09123 187.468 -58.0624)
(0.975762 187.53 -57.9045)
(1.27872 187.313 -58.3459)
(0.849867 187.569 -57.7458)
(0.711127 187.588 -57.5827)
(-1.41543 185.496 -56.2283)
(-1.4897 185.245 -56.267)
(0.343872 183.115 -59.3308)
(0.308616 187.532 -57.1623)
(0.173558 187.477 -57.039)
(1.19163 187.394 -58.2101)
(0.446776 187.57 -57.2975)
(0.0318367 187.405 -56.9164)
(1.56551 186.849 -58.8879)
(-0.118756 187.314 -56.7929)
(-0.267398 187.208 -56.6786)
(-0.557047 186.947 -56.4827)
(1.71316 185.66 -59.6252)
(1.36162 185.469 -59.3265)
(-0.413793 187.085 -56.5752)
(-1.50397 183.473 -57.1052)
(1.60434 184.999 -59.8229)
(0.816016 183.414 -59.7109)
(-1.41511 184.652 -56.6359)
(-1.33365 183.079 -57.4845)
(0.681291 183.258 -59.6367)
(-1.16906 182.847 -57.779)
(-1.06095 182.744 -57.9488)
(1.65259 185.226 -59.7671)
(0.54643 183.116 -59.555)
(0.268968 182.876 -59.3628)
(-1.25925 182.96 -57.6242)
(-0.689407 186.805 -56.4043)
(-0.811571 186.657 -56.3397)
(-0.94815 182.663 -58.113)
(-0.366337 182.561 -58.8084)
(-0.214063 182.602 -58.9582)
(0.11875 182.769 -59.2472)
(-0.0453382 182.674 -59.111)
(-0.933994 186.489 -56.2845)
(-1.03664 186.33 -56.2476)
(-1.60413 184.568 -56.4662)
(-1.61468 184.349 -56.5602)
(1.68991 185.454 -59.6984)
(-1.5778 184.792 -56.3876)
(-1.54036 185.018 -56.3202)
(-1.61305 184.152 -56.657)
(-1.13975 186.151 -56.2192)
(-1.24198 185.946 -56.2044)
(-0.840115 182.603 -58.262)
(0.414733 182.994 -59.4678)
(-1.45407 183.329 -57.2299)
(0.580061 187.587 -57.4373)
(1.66348 186.537 -59.1469)
(1.62026 186.692 -59.0243)
(1.71109 186.203 -59.3609)
)


// edges:

256
(
(31 25)
(25 55)
(31 37)
(12 84)
(0 92)
(11 94)
(90 27)
(49 43)
(59 25)
(65 25)
(95 11)
(2 0)
(1 2)
(5 3)
(4 5)
(7 8)
(11 9)
(10 11)
(3 12)
(15 16)
(14 15)
(16 17)
(5 19)
(20 19)
(21 19)
(10 21)
(20 10)
(22 23)
(25 20)
(22 25)
(2 17)
(26 2)
(17 26)
(2 14)
(21 7)
(15 21)
(7 15)
(15 18)
(29 16)
(15 29)
(30 24)
(23 30)
(24 31)
(32 33)
(12 35)
(1 5)
(24 36)
(33 38)
(20 40)
(40 28)
(29 42)
(30 43)
(45 16)
(13 46)
(47 13)
(43 48)
(50 17)
(25 58)
(7 60)
(12 0)
(12 1)
(40 63)
(31 65)
(28 64)
(30 68)
(70 28)
(71 11)
(11 28)
(48 73)
(74 28)
(12 77)
(73 76)
(86 17)
(88 11)
(89 26)
(0 90)
(73 3)
(33 73)
(8 11)
(78 96)
(98 73)
(23 73)
(73 4)
(100 7)
(62 84)
(8 102)
(103 8)
(25 40)
(104 27)
(26 104)
(16 106)
(29 97)
(107 25)
(40 107)
(30 108)
(110 43)
(0 1)
(3 4)
(6 7)
(8 6)
(9 10)
(12 13)
(13 3)
(16 14)
(17 14)
(1 18)
(14 1)
(18 14)
(19 18)
(18 5)
(4 20)
(19 4)
(19 10)
(21 18)
(23 24)
(24 22)
(20 22)
(2 27)
(27 0)
(20 28)
(28 10)
(9 7)
(21 9)
(4 22)
(25 24)
(33 13)
(13 32)
(34 33)
(35 13)
(37 24)
(39 33)
(41 29)
(44 30)
(43 44)
(16 41)
(1 3)
(16 50)
(52 27)
(27 51)
(53 27)
(24 54)
(56 25)
(57 31)
(61 7)
(0 62)
(62 12)
(33 3)
(64 40)
(40 66)
(67 28)
(68 24)
(69 28)
(28 71)
(73 72)
(75 16)
(76 33)
(15 78)
(78 29)
(79 17)
(12 80)
(17 81)
(82 17)
(83 73)
(0 85)
(85 62)
(11 87)
(26 82)
(91 0)
(0 93)
(95 8)
(97 78)
(43 23)
(73 43)
(7 78)
(78 99)
(78 100)
(29 101)
(4 23)
(26 27)
(8 9)
(62 105)
(109 30)
(32 34)
(36 37)
(38 39)
(42 41)
(34 38)
(41 45)
(46 47)
(48 49)
(51 52)
(52 53)
(54 36)
(55 56)
(37 57)
(58 59)
(60 61)
(63 64)
(66 63)
(64 67)
(67 69)
(69 70)
(72 48)
(70 74)
(45 75)
(35 46)
(39 76)
(77 35)
(50 79)
(80 77)
(74 71)
(81 82)
(76 83)
(84 80)
(79 86)
(87 88)
(86 81)
(82 89)
(90 91)
(92 85)
(93 92)
(94 95)
(96 97)
(83 98)
(99 96)
(100 99)
(101 42)
(61 100)
(102 103)
(6 60)
(98 72)
(95 102)
(71 87)
(104 51)
(53 90)
(91 93)
(89 104)
(105 84)
(106 50)
(85 105)
(75 106)
(47 32)
(97 101)
(103 6)
(88 94)
(59 107)
(107 66)
(56 58)
(65 55)
(57 65)
(108 109)
(68 54)
(109 68)
(44 108)
(49 110)
(110 44)
)

// * * * * * * * * * * * * * * * * * * * * * * * * * * * * * * * * * * * * * //


// ************************************************************************* //
