/*--------------------------------*- C++ -*----------------------------------*\
  =========                 |
  \\      /  F ield         | OpenFOAM: The Open Source CFD Toolbox
   \\    /   O peration     | Website:  https://openfoam.org
    \\  /    A nd           | Version:  6
     \\/     M anipulation  |
\*---------------------------------------------------------------------------*/
FoamFile
{
    version     2.0;
    format      ascii;
    class       featureEdgeMesh;
    location    "constant/triSurface";
    object      outlet2.eMesh;
}
// * * * * * * * * * * * * * * * * * * * * * * * * * * * * * * * * * * * * * //


// points:

74
(
(-6.11045 183.69 -56.3108)
(-6.29474 183.697 -56.3427)
(-6.17499 179.101 -56.2218)
(-5.99782 179.114 -56.1916)
(-4.00673 181.141 -55.8928)
(-3.99258 181.339 -55.8947)
(-8.47355 181.835 -56.6775)
(-8.50613 181.639 -56.6788)
(-8.15574 180.138 -56.5857)
(-8.04329 179.982 -56.5629)
(-4.08104 180.756 -55.8972)
(-4.03434 180.945 -55.8933)
(-4.33169 180.184 -55.9279)
(-4.23627 180.359 -55.9153)
(-3.99204 181.517 -55.8985)
(-4.00944 181.709 -55.9056)
(-8.51882 181.449 -56.6769)
(-8.29342 182.386 -56.6585)
(-8.37031 182.21 -56.6679)
(-8.49552 181.063 -56.6644)
(-8.46214 180.866 -56.6544)
(-8.51421 181.265 -56.6721)
(-4.1493 182.252 -55.9416)
(-4.22507 182.422 -55.9583)
(-8.4078 180.679 -56.6409)
(-4.04278 181.89 -55.9153)
(-4.08641 182.065 -55.9267)
(-4.31753 182.59 -55.9779)
(-8.34081 180.497 -56.6254)
(-5.81086 179.146 -56.1601)
(-8.25196 180.304 -56.6059)
(-4.45074 180.016 -55.9447)
(-4.41322 182.742 -55.9977)
(-4.53434 182.897 -56.022)
(-4.15002 180.561 -55.9048)
(-4.87495 179.579 -56.0083)
(-4.73063 179.702 -55.9861)
(-5.6401 179.19 -56.1316)
(-6.54776 179.117 -56.2864)
(-6.35288 179.102 -56.2525)
(-7.09799 179.26 -56.3843)
(-6.9127 179.197 -56.351)
(-6.73288 179.149 -56.319)
(-7.28042 179.344 -56.4176)
(-7.45549 179.446 -56.45)
(-7.6285 179.565 -56.4824)
(-4.58774 179.849 -55.9647)
(-7.91974 179.834 -56.5384)
(-7.77955 179.69 -56.5111)
(-8.42794 182.031 -56.6739)
(-4.68534 183.055 -56.0514)
(-4.83325 183.19 -56.0799)
(-7.56655 183.265 -56.5524)
(-7.7112 183.149 -56.5748)
(-4.99779 183.314 -56.1109)
(-7.85364 183.014 -56.5964)
(-7.9878 182.87 -56.6164)
(-6.49335 183.679 -56.3766)
(-6.69154 183.646 -56.41)
(-8.09524 182.728 -56.6318)
(-8.19982 182.56 -56.6462)
(-5.16195 183.412 -56.1413)
(-7.40162 183.372 -56.5263)
(-7.22532 183.465 -56.498)
(-5.90928 183.666 -56.2756)
(-5.69424 183.625 -56.2377)
(-5.02024 179.478 -56.0311)
(-5.17181 179.383 -56.0551)
(-5.32112 179.305 -56.0792)
(-5.47011 179.244 -56.1035)
(-5.49949 183.567 -56.2029)
(-5.32 183.489 -56.1703)
(-6.87179 183.605 -56.4402)
(-7.05352 183.544 -56.4701)
)


// edges:

74
(
(0 1)
(2 3)
(4 5)
(6 7)
(8 9)
(10 11)
(12 13)
(14 15)
(7 16)
(17 18)
(19 20)
(21 19)
(22 23)
(20 24)
(25 26)
(23 27)
(24 28)
(3 29)
(30 8)
(31 12)
(5 14)
(32 33)
(34 10)
(15 25)
(35 36)
(29 37)
(38 39)
(40 41)
(41 42)
(43 40)
(39 2)
(44 43)
(45 44)
(46 31)
(47 48)
(28 30)
(9 47)
(13 34)
(11 4)
(49 6)
(33 50)
(50 51)
(52 53)
(51 54)
(55 56)
(57 58)
(59 60)
(53 55)
(54 61)
(62 52)
(63 62)
(64 0)
(65 64)
(16 21)
(36 46)
(66 35)
(67 66)
(68 67)
(69 68)
(37 69)
(42 38)
(48 45)
(27 32)
(26 22)
(60 17)
(18 49)
(70 65)
(71 70)
(58 72)
(72 73)
(1 57)
(73 63)
(61 71)
(56 59)
)

// * * * * * * * * * * * * * * * * * * * * * * * * * * * * * * * * * * * * * //


// ************************************************************************* //
