/*--------------------------------*- C++ -*----------------------------------*\
  =========                 |
  \\      /  F ield         | OpenFOAM: The Open Source CFD Toolbox
   \\    /   O peration     | Website:  https://openfoam.org
    \\  /    A nd           | Version:  6
     \\/     M anipulation  |
\*---------------------------------------------------------------------------*/
FoamFile
{
    version     2.0;
    format      ascii;
    class       featureEdgeMesh;
    location    "constant/triSurface";
    object      outlet1.eMesh;
}
// * * * * * * * * * * * * * * * * * * * * * * * * * * * * * * * * * * * * * //


// points:

99
(
(-18.8269 178.584 -64.5533)
(-18.8783 178.763 -64.6009)
(-19.9486 174.939 -64.3846)
(-19.7967 175.108 -64.3555)
(-19.1193 176.157 -64.2731)
(-19.0279 176.365 -64.2725)
(-20.0766 180.464 -65.3158)
(-20.2424 180.581 -65.3959)
(-20.4122 180.684 -65.4751)
(-20.5872 180.777 -65.5545)
(-20.2724 174.626 -64.4541)
(-20.1144 174.771 -64.4189)
(-21.087 180.964 -65.7691)
(-21.28 181.01 -65.8477)
(-21.4804 181.043 -65.9271)
(-21.7031 181.061 -66.0123)
(-20.9164 180.912 -65.6977)
(-20.4355 174.492 -64.4929)
(-25.356 176.902 -66.6966)
(-25.3221 176.599 -66.6355)
(-19.6395 175.303 -64.3286)
(-19.4888 175.512 -64.3064)
(-25.1234 175.802 -66.4345)
(-25.0277 175.563 -66.3611)
(-25.273 176.324 -66.5734)
(-25.207 176.059 -66.5067)
(-22.4317 181.013 -66.2739)
(-22.6919 180.958 -66.3612)
(-20.7499 180.849 -65.6262)
(-22.9485 180.883 -66.4439)
(-23.1819 180.796 -66.5162)
(-19.3428 175.741 -64.2891)
(-19.2224 175.956 -64.2789)
(-24.8758 179.301 -66.903)
(-24.9738 179.112 -66.9089)
(-21.5195 173.913 -64.8008)
(-21.3451 173.972 -64.7458)
(-21.8751 173.83 -64.9189)
(-21.6961 173.866 -64.8585)
(-22.2353 173.793 -65.0461)
(-22.0547 173.806 -64.9814)
(-22.5948 173.8 -65.1801)
(-22.4152 173.791 -65.1123)
(-23.3947 180.699 -66.5794)
(-23.5896 180.597 -66.635)
(-23.1224 173.892 -65.3896)
(-22.9489 173.85 -65.319)
(-25.2803 178.184 -66.8738)
(-25.3276 177.901 -66.8458)
(-24.5551 179.777 -66.8606)
(-24.6711 179.625 -66.8791)
(-21.9361 181.064 -66.0988)
(-23.2932 173.943 -65.461)
(-23.6235 174.076 -65.6043)
(-23.4602 174.004 -65.5325)
(-23.9341 174.25 -65.7469)
(-23.7814 174.158 -65.6757)
(-24.9193 175.343 -66.2857)
(-24.7875 175.118 -66.2011)
(-24.2186 174.467 -65.8867)
(-24.0795 174.353 -65.8172)
(-24.6499 174.924 -66.1192)
(-23.7902 180.473 -66.6894)
(-23.9797 180.338 -66.7378)
(-19.9008 180.324 -65.2285)
(-24.2996 180.059 -66.8113)
(-24.4314 179.922 -66.8381)
(-25.3706 177.242 -66.7563)
(-25.2193 178.45 -66.8937)
(-24.5069 174.749 -66.0384)
(-19.5607 179.986 -65.0487)
(-19.7268 180.164 -65.1385)
(-20.9702 174.142 -64.6346)
(-20.7867 174.248 -64.5838)
(-24.145 180.202 -66.7771)
(-22.1886 181.047 -66.1894)
(-19.2491 179.564 -64.8661)
(-19.3983 179.784 -64.9564)
(-18.9455 176.576 -64.2758)
(-18.8705 176.809 -64.2854)
(-18.8097 177.039 -64.2998)
(-18.7673 177.252 -64.3182)
(-18.9462 178.957 -64.6571)
(-19.0259 179.15 -64.7173)
(-18.7853 178.402 -64.5088)
(-18.7376 177.462 -64.3408)
(-18.7225 177.652 -64.3657)
(-18.7537 178.217 -64.4676)
(-18.7216 177.842 -64.3956)
(-18.7326 178.031 -64.4299)
(-24.7778 179.466 -66.8932)
(-20.6144 174.36 -64.538)
(-19.1277 179.355 -64.7877)
(-22.7726 173.82 -65.2489)
(-21.1557 174.051 -64.6884)
(-24.3654 174.601 -65.9625)
(-25.0629 178.913 -66.91)
(-25.1461 178.688 -66.9048)
(-25.3595 177.587 -66.8075)
)


// edges:

99
(
(0 1)
(2 3)
(4 5)
(6 7)
(8 9)
(10 11)
(12 13)
(14 15)
(16 12)
(17 10)
(18 19)
(20 21)
(22 23)
(24 25)
(26 27)
(28 16)
(29 30)
(31 32)
(11 2)
(33 34)
(35 36)
(37 38)
(39 40)
(41 42)
(43 44)
(45 46)
(47 48)
(49 50)
(15 51)
(52 45)
(53 54)
(55 56)
(57 58)
(59 60)
(58 61)
(54 52)
(7 8)
(60 55)
(62 63)
(21 31)
(32 4)
(64 6)
(3 20)
(65 66)
(67 18)
(19 24)
(68 47)
(23 57)
(61 69)
(70 71)
(72 73)
(63 74)
(75 26)
(44 62)
(13 14)
(74 65)
(76 77)
(78 79)
(80 81)
(82 83)
(1 82)
(84 0)
(85 86)
(87 84)
(88 89)
(90 33)
(91 17)
(40 37)
(86 88)
(89 87)
(81 85)
(79 80)
(83 92)
(5 78)
(92 76)
(77 70)
(93 41)
(71 64)
(9 28)
(51 75)
(42 39)
(27 29)
(66 49)
(50 90)
(73 91)
(94 72)
(46 93)
(56 53)
(95 59)
(69 95)
(96 97)
(34 96)
(97 68)
(25 22)
(36 94)
(98 67)
(48 98)
(38 35)
(30 43)
)

// * * * * * * * * * * * * * * * * * * * * * * * * * * * * * * * * * * * * * //


// ************************************************************************* //
