/*--------------------------------*- C++ -*----------------------------------*\
  =========                 |
  \\      /  F ield         | OpenFOAM: The Open Source CFD Toolbox
   \\    /   O peration     | Website:  https://openfoam.org
    \\  /    A nd           | Version:  6
     \\/     M anipulation  |
\*---------------------------------------------------------------------------*/
FoamFile
{
    version     2.0;
    format      ascii;
    class       featureEdgeMesh;
    location    "constant/triSurface";
    object      wall_aorta.eMesh;
}
// * * * * * * * * * * * * * * * * * * * * * * * * * * * * * * * * * * * * * //


// points:

27217
(
(-1.82428 201.162 -103.957)
(-0.77369 189.916 -81.815)
(-0.754089 190.248 -81.6538)
(-0.857075 189.862 -81.3834)
(-0.851671 190.232 -81.2077)
(-9.53527 186.23 -72.8914)
(-9.65352 186.321 -73.0987)
(-9.75592 186.037 -73.0902)
(-20.7025 163.14 -94.6832)
(-20.2123 163.263 -95.076)
(-9.83311 186.239 -73.3139)
(-17.8748 178.143 -68.1268)
(-17.8706 178.073 -68.5271)
(-17.9403 178.38 -68.2869)
(-17.9763 178.397 -68.7063)
(-20.5633 163.035 -95.2575)
(-18.0401 178.651 -68.4148)
(-4.38516 200.391 -106.893)
(-19.0159 173.481 -73.5398)
(-18.871 173.695 -73.5433)
(-0.857388 193.703 -90.564)
(0.142467 195.158 -92.0164)
(-2.74967 188.026 -77.2793)
(-2.61034 188.565 -77.5179)
(-2.40874 196.198 -91.2622)
(-23.8711 168.978 -80.425)
(-1.7961 195.873 -91.1768)
(-4.6081 200.079 -100.565)
(-4.44016 200.227 -100.796)
(-4.69002 200.095 -101.012)
(-2.92732 196.459 -91.4832)
(-2.77005 196.194 -91.2034)
(-2.80375 195.928 -90.9494)
(-3.01447 196.037 -91.0506)
(-7.49241 182.71 -62.5153)
(-28.2088 173.308 -80.4571)
(-28.2832 171.925 -80.4972)
(-28.3714 172.262 -80.5654)
(-28.4965 171.95 -80.752)
(-22.8064 178.536 -86.6703)
(-28.5264 172.522 -80.7764)
(-28.6392 172.134 -80.9282)
(-25.0783 178.702 -83.8281)
(-24.8331 178.815 -83.9318)
(-6.8221 197.625 -105.352)
(-29.8312 165.493 -91.9308)
(-29.5953 165.218 -92.1773)
(-29.4793 165.033 -91.8949)
(-29.6913 165.219 -91.232)
(-21.7894 162.578 -95.5774)
(-21.7964 162.665 -95.0669)
(-6.12492 193.45 -91.5849)
(-6.0255 193.213 -91.4736)
(-5.93409 193.494 -91.4024)
(-22.3119 162.65 -94.5906)
(-26.5692 168.105 -81.8733)
(-20.0215 173.818 -67.3121)
(-19.9206 173.973 -66.9702)
(-19.7518 173.958 -67.3745)
(-4.40935 189.688 -92.8595)
(-4.52627 189.749 -92.5914)
(-19.7412 174.091 -66.9648)
(-21.852 162.766 -94.5295)
(-18.5879 179.628 -68.4364)
(-18.7886 179.87 -68.4438)
(-18.6936 179.78 -68.1442)
(-21.3621 162.825 -94.866)
(-5.68427 193.565 -91.1926)
(-5.86473 193.728 -91.3709)
(-5.76911 193.247 -91.2374)
(-18.8438 179.946 -68.0632)
(-18.6879 179.753 -67.8177)
(-18.8102 179.827 -67.38)
(-18.6095 179.596 -67.4628)
(-18.5729 179.624 -68.1217)
(-5.88622 192.938 -91.3485)
(-23.0838 162.415 -95.7824)
(-22.4703 162.409 -96.2326)
(-28.7615 172.403 -81.1177)
(-18.4976 179.506 -67.8879)
(-18.4288 179.415 -68.2545)
(-6.33636 193.078 -86.7368)
(-6.39124 192.84 -86.9192)
(-6.53351 192.843 -86.5801)
(-18.5006 179.459 -68.7043)
(-6.42681 193.107 -86.4723)
(-6.24567 193.352 -86.5081)
(-6.56735 192.992 -86.2766)
(-24.6859 162.695 -97.3436)
(-24.7666 162.81 -97.9173)
(-24.3302 162.664 -97.9312)
(-26.0711 163.036 -93.1252)
(-26.2106 163.035 -93.5603)
(-26.5506 163.153 -93.5687)
(-25.9684 162.94 -93.9423)
(-20.2091 179.669 -73.5865)
(-25.0027 162.739 -96.8452)
(0.207457 196.676 -93.1523)
(0.118999 196.292 -92.7592)
(0.501466 196.384 -93.1698)
(-20.0019 165.398 -91.6874)
(-25.8357 162.926 -93.5848)
(-25.7079 162.939 -93.2018)
(-26.4045 163.189 -92.6434)
(-26.5539 163.412 -91.5669)
(-24.3408 163.204 -91.6486)
(-24.7328 163.135 -91.8156)
(-3.27193 185.126 -77.6829)
(-30.6216 167.376 -91.5444)
(-30.5167 167.408 -92.1066)
(-30.5112 167.113 -91.8951)
(-24.3208 163.028 -92.1985)
(-30.4218 167.038 -92.2576)
(0.371692 200.603 -102.858)
(0.696191 200.442 -102.973)
(-6.50185 192.184 -87.2588)
(-6.53765 191.877 -87.3198)
(0.435825 190.518 -103.598)
(-6.53555 191.369 -87.3731)
(-26.6329 164.49 -88.1725)
(-26.115 164.502 -88.1107)
(-0.371869 194.947 -91.4424)
(-0.751325 194.727 -91.0287)
(-25.8743 164.236 -88.7504)
(-0.446978 194.233 -91.0583)
(-0.685566 194.407 -90.9332)
(-4.84785 188.127 -62.067)
(-0.907878 194.239 -90.7062)
(-29.9985 166.644 -86.7882)
(-29.8157 166.651 -86.398)
(-6.67986 195.187 -93.6433)
(-6.80731 194.997 -93.8546)
(-1.68838 201.161 -103.53)
(0.118675 200.73 -103.932)
(-0.234561 200.865 -103.863)
(-6.99854 183.349 -58.4215)
(-1.41691 201.137 -103.357)
(-1.09219 194.885 -90.8717)
(-0.830303 195.024 -91.1285)
(-1.73425 189.592 -61.041)
(-2.00703 189.722 -61.0925)
(-2.18732 189.645 -60.8454)
(-6.56833 198.175 -105.474)
(-6.70704 197.885 -105.58)
(-2.44723 189.754 -60.9685)
(-2.44093 189.47 -93.9744)
(-2.52079 189.483 -94.2997)
(0.741007 196.139 -93.2147)
(0.990631 195.873 -93.3041)
(0.937392 196.217 -93.4855)
(-2.43441 189.618 -60.7256)
(-2.44156 189.27 -60.1642)
(2.17347 191.511 -102.861)
(2.4007 191.718 -102.624)
(-25.8847 167.82 -82.0338)
(-1.01268 195.259 -91.1434)
(-1.33045 195.207 -90.9151)
(-1.95729 193.187 -81.8679)
(-2.24376 193.401 -82.0089)
(-4.2715 181.101 -60.0304)
(-4.31157 180.832 -60.0726)
(-1.28555 195.577 -91.1978)
(-1.52881 195.38 -90.9235)
(-4.49369 189.782 -92.3532)
(2.93666 198.434 -103.218)
(-7.19178 196.155 -105.285)
(-25.38 167.842 -81.9331)
(-6.05752 191.316 -88.2613)
(-5.88157 191.361 -88.4809)
(-1.74575 195.408 -90.8401)
(-1.66104 195.138 -90.7115)
(-23.367 163.885 -90.4165)
(-3.40507 189.851 -61.3747)
(-5.36577 181.714 -78.2711)
(-5.2439 181.866 -77.9762)
(-5.60413 181.435 -77.9236)
(-3.73833 191.983 -78.5956)
(-4.06266 192.123 -78.6177)
(3.46706 193.423 -103.754)
(-3.18221 189.88 -61.299)
(-3.19611 189.535 -60.6854)
(-3.44341 189.601 -60.9276)
(-20.9276 162.973 -94.9095)
(3.69355 194.083 -103.817)
(-2.14184 193.483 -82.4882)
(2.83695 198.531 -102.743)
(2.61062 198.829 -102.713)
(2.69861 198.663 -102.32)
(-4.77281 192.744 -79.2734)
(-5.10752 192.721 -79.2605)
(-4.67213 192.539 -78.9918)
(1.90184 199.426 -101.607)
(1.59901 199.734 -101.879)
(1.60279 199.627 -101.29)
(-16.0714 181.325 -74.1961)
(-28.1949 166.436 -98.4645)
(-28.3884 166.644 -98.1642)
(-27.7629 163.756 -93.3931)
(-27.534 163.615 -93.2029)
(-28.0225 163.922 -93.3307)
(-17.7594 180.926 -74.8636)
(-18.1714 180.771 -75.024)
(-17.8566 180.543 -74.6618)
(-17.9007 177.975 -67.4334)
(-17.8973 177.686 -67.2388)
(-17.8289 177.754 -67.7115)
(-17.8224 177.454 -67.6018)
(-17.8807 177.405 -67.2603)
(-17.8471 177.213 -67.4648)
(-3.62784 189.505 -60.8987)
(-3.79122 189.564 -61.166)
(-3.8684 189.392 -60.9407)
(-17.7953 177.218 -67.8383)
(-17.7807 177.499 -68.0548)
(-3.62172 189.327 -60.6208)
(3.7642 196.266 -102.847)
(-17.8322 176.982 -67.6747)
(-17.852 176.537 -68.1556)
(-17.7934 176.834 -68.2958)
(-17.8305 176.768 -67.9095)
(3.80609 196.204 -103.375)
(-17.7944 176.989 -67.9902)
(-17.7714 177.154 -68.1996)
(-3.34317 200.966 -103.275)
(-2.85057 201.089 -103.275)
(-1.86831 201.063 -101.678)
(-2.20175 201.032 -101.459)
(-1.79459 200.993 -101.201)
(2.61987 196.769 -97.5688)
(-6.54325 193.367 -82.4086)
(-6.35412 193.452 -82.1909)
(-7.91363 179.326 -77.8715)
(-18.1686 176.183 -66.9583)
(-18.1676 176.469 -66.6519)
(-18.2916 176.156 -66.5895)
(-18.4188 175.882 -66.5549)
(-18.2915 175.858 -66.9905)
(-26.0203 163.312 -91.5186)
(-25.6712 163.335 -91.2555)
(-12.8195 182.573 -73.7466)
(-5.83842 193.687 -118.024)
(-17.9371 178.118 -69.0015)
(-17.8142 177.775 -68.5402)
(-17.8546 177.832 -68.8621)
(-17.9123 177.836 -69.2284)
(3.23728 193.079 -101.109)
(-19.6952 172.898 -73.0577)
(-4.30577 189.694 -76.5782)
(-4.13952 189.538 -76.5795)
(-26.3244 177.762 -82.15)
(-26.0505 177.899 -81.5956)
(-6.92692 196.01 -110.403)
(-18.576 179.468 -69.0595)
(-18.6899 179.692 -68.7921)
(-18.6344 179.422 -69.4035)
(-18.7366 179.638 -69.1787)
(-18.8474 179.808 -69.0493)
(-23.5665 177.908 -87.8777)
(-23.2401 177.858 -88.0245)
(-18.7948 179.585 -69.5256)
(-18.9229 179.79 -69.372)
(-18.9757 179.68 -69.8138)
(-19.1629 179.992 -69.4914)
(-19.0248 179.986 -69.0727)
(-18.8975 179.935 -68.7466)
(-5.44139 199.286 -100.055)
(-5.41993 199.409 -100.617)
(-5.65846 199.109 -100.374)
(3.38592 196.87 -100.884)
(3.5284 196.638 -101.353)
(3.38425 197.078 -101.297)
(0.527429 190.411 -100.495)
(3.28432 196.88 -100.344)
(3.32326 197.378 -101.632)
(0.0693639 193.58 -91.3903)
(-0.261131 193.51 -91.0263)
(-0.985868 194.532 -90.7724)
(-1.28963 194.578 -90.6115)
(-19.1094 180.131 -68.7806)
(-19.2617 180.288 -68.6)
(-19.0066 180.094 -68.3723)
(-24.3608 172.251 -74.7939)
(-5.20636 199.42 -99.591)
(3.78081 194.453 -103.546)
(-5.59806 189.579 -76.0794)
(-3.73538 189.041 -88.778)
(-3.96396 189.005 -88.7277)
(-3.86248 189.08 -88.9658)
(0.043041 199.886 -98.6072)
(0.42154 199.655 -98.5082)
(0.377219 199.884 -99.1143)
(-1.93402 194.96 -90.5223)
(-1.70019 194.829 -90.54)
(-28.484 164.186 -92.3987)
(-28.2567 164.031 -92.2049)
(-1.42841 194.885 -90.6827)
(-1.56531 194.609 -90.4969)
(-19.7061 165.986 -91.5438)
(3.31614 197.774 -103.178)
(-5.63404 199.039 -99.861)
(-1.1056 190.812 -87.5146)
(-1.12942 191.02 -87.7593)
(3.12572 197.275 -100.257)
(-8.56897 188.064 -74.159)
(-2.36954 189.669 -78.0685)
(-3.55646 189.569 -92.2444)
(-4.17816 190.373 -72.122)
(-26.929 163.489 -95.6448)
(-27.1399 163.682 -95.9364)
(-18.8124 174.935 -67.0692)
(-18.6147 175.063 -67.4031)
(-23.8485 178.156 -87.252)
(-2.89538 193.341 -80.9787)
(-2.79462 193.444 -81.3492)
(-3.09769 193.55 -81.341)
(-23.464 162.822 -93.1269)
(-23.515 162.965 -92.6089)
(-5.37162 191.965 -78.2567)
(-8.71779 183.37 -72.3454)
(-8.5879 183.215 -72.3577)
(-8.42173 183.472 -72.0687)
(-7.01539 195.75 -109.384)
(-3.11583 189.362 -60.3993)
(-2.91064 189.436 -60.4459)
(-3.28358 189.37 -60.4816)
(-17.9877 176.826 -67.0123)
(-18.1501 176.844 -66.4408)
(-2.94218 189.248 -60.1931)
(-29.7061 165.784 -93.3632)
(-18.3252 179.058 -69.1033)
(-18.2116 178.757 -69.2531)
(-18.3961 178.986 -69.5362)
(3.11336 194.407 -98.2957)
(-18.1645 178.914 -68.5248)
(-18.0969 178.683 -68.8129)
(-18.2138 178.921 -68.873)
(-18.3098 179.171 -68.6331)
(-11.0345 178.423 -74.2767)
(-18.4307 179.287 -68.9617)
(-6.01917 192.678 -91.5046)
(-19.2086 180.463 -75.5744)
(-19.1319 180.179 -75.286)
(-19.1833 180.066 -66.7537)
(-19.072 180.015 -66.9789)
(-18.2421 181.031 -75.292)
(-4.25381 182.795 -75.1351)
(-4.10613 183.011 -75.278)
(-5.88593 192.334 -91.4428)
(-5.84862 192.001 -91.516)
(-18.7826 173.8 -73.9088)
(-18.7365 173.942 -73.4992)
(-2.36518 191.368 -78.9619)
(-2.0593 191.408 -79.3068)
(-2.24188 191.646 -79.306)
(3.27273 197.168 -100.817)
(-6.05683 191.383 -92.1239)
(-24.2597 177.998 -87.3943)
(-7.86515 179.388 -76.7086)
(-7.86825 179.456 -76.4285)
(-12.0757 180.716 -73.2754)
(-12.1007 180.315 -73.2768)
(-11.7879 180.561 -73.2848)
(-26.0349 163.174 -96.7803)
(-10.8991 179.491 -73.7012)
(-25.6308 162.988 -96.8496)
(-25.9221 163.045 -96.3408)
(-1.1132 189.739 -94.1165)
(-1.42716 189.641 -94.1078)
(-0.775133 189.873 -94.1919)
(-2.37949 199.555 -96.3054)
(-2.77347 199.522 -96.2936)
(-26.2643 163.213 -96.2981)
(-5.70013 193.886 -91.2591)
(-5.92048 194.023 -91.4816)
(-5.49565 193.743 -91.0683)
(-1.09191 189.211 -80.8665)
(-5.48739 194.069 -91.1306)
(-5.71023 194.261 -91.3596)
(-22.5713 162.376 -96.7734)
(-22.9613 162.372 -96.8364)
(-22.5918 162.367 -97.3007)
(-22.2184 162.377 -97.6881)
(-22.1952 162.383 -97.1675)
(-23.4188 162.396 -96.7926)
(-23.0672 162.381 -97.384)
(-6.83999 195.38 -94.5645)
(-6.92522 195.169 -94.6763)
(-23.6339 162.43 -97.1462)
(-22.5943 162.374 -97.7502)
(-2.91472 189.873 -61.1935)
(-25.2276 163.028 -98.0511)
(-5.30761 192.795 -79.4171)
(-5.58821 192.741 -79.4189)
(-1.15385 194.305 -90.5779)
(-2.98395 190.216 -61.9685)
(-3.22793 190.14 -61.8955)
(-18.8571 174.729 -67.4286)
(-5.20912 194.259 -90.9832)
(-18.4876 175.041 -67.9795)
(-18.7083 174.767 -67.8623)
(-18.269 175.367 -68.1435)
(-18.3978 175.298 -67.6683)
(-26.656 164.257 -98.8027)
(-18.27 175.275 -68.63)
(-18.4067 175.06 -68.4254)
(-5.29389 191.39 -107.223)
(-29.2605 164.803 -91.8913)
(-29.1866 164.717 -91.4632)
(-21.7568 179.68 -83.9761)
(-4.75672 190.681 -66.8063)
(-17.8548 177.547 -69.1726)
(-5.35598 190.614 -91.9302)
(-17.9759 177.725 -69.6418)
(-17.9228 177.319 -69.6683)
(-26.6934 164.949 -99.9785)
(-26.5981 164.691 -99.7497)
(-27.2822 165.522 -99.5666)
(-27.3353 165.949 -99.9174)
(-17.8148 177.851 -68.1605)
(-17.8044 177.556 -68.7637)
(-17.7864 177.608 -68.4005)
(-3.27776 188.745 -59.7815)
(-3.5081 188.764 -59.9381)
(-3.37067 188.558 -59.6898)
(-17.7735 177.314 -68.547)
(-4.39175 181.952 -60.2339)
(-28.9552 164.594 -92.6924)
(-17.8422 177.164 -69.2511)
(-17.8035 177.34 -68.9216)
(-2.15085 187.575 -78.4973)
(-8.38065 182.777 -72.5873)
(-8.19063 182.917 -72.3356)
(-8.72357 182.921 -72.6975)
(-28.6144 164.317 -90.9863)
(-28.4271 164.225 -90.8623)
(-28.7625 174.099 -81.9109)
(-28.6446 174.058 -81.5942)
(-28.8288 173.793 -81.7958)
(-29.0166 173.797 -82.2767)
(0.399773 198.217 -95.366)
(0.144291 198.332 -95.2688)
(3.68575 194.516 -101.711)
(3.67111 194.284 -101.931)
(3.72374 194.861 -101.732)
(-5.47903 193.738 -81.7863)
(-5.2773 193.737 -81.5827)
(-5.24786 193.815 -81.9086)
(3.80296 194.766 -102.881)
(-8.90909 183.476 -72.4285)
(-9.12774 183.38 -72.6883)
(-8.32181 183.147 -72.2239)
(-8.02748 183.094 -72.0892)
(-3.2895 189.531 -92.3145)
(-3.75564 184.266 -70.7468)
(-4.00427 184.18 -70.6957)
(-0.926319 191.665 -81.5018)
(-0.926398 191.435 -81.2887)
(-1.02233 191.378 -80.9739)
(-0.941378 191.202 -81.082)
(-28.1918 175.422 -86.7512)
(-28.0196 175.752 -86.4184)
(-27.8622 175.809 -86.7612)
(-27.9606 175.49 -87.2625)
(-26.9864 166.788 -101.244)
(-27.2644 166.8 -100.707)
(-28.2104 164.102 -90.9431)
(-27.961 164.017 -90.7703)
(-28.2736 164.196 -90.5388)
(-27.4254 167.156 -100.56)
(-3.01062 188.968 -77.1584)
(-0.433708 190.042 -94.2445)
(-0.925431 189.808 -93.8382)
(-4.14248 191.621 -78.084)
(-3.84075 191.67 -78.2474)
(-27.8891 164.065 -90.3781)
(-0.635791 189.946 -93.786)
(-0.704724 189.978 -93.271)
(-1.02542 189.804 -93.3803)
(-27.6423 167.725 -100.276)
(-8.92142 178.547 -77.3157)
(-3.07941 198.309 -93.8776)
(-2.75608 198.313 -93.8315)
(-2.86101 198.515 -94.1925)
(-28.7814 174.312 -82.2071)
(-29.008 174.085 -82.5963)
(2.17668 194.339 -94.8595)
(2.079 194.525 -94.5919)
(-28.8721 174.419 -82.6479)
(-19.4181 174.513 -66.5248)
(-5.19312 194.623 -91.0877)
(-5.1234 194.968 -91.178)
(-5.43801 194.863 -91.3679)
(-8.84825 179.209 -75.2576)
(-8.71005 179.184 -75.4651)
(-30.0363 169.164 -93.4491)
(-30.1089 168.881 -93.4103)
(-23.6567 162.417 -96.3469)
(-23.2582 162.391 -96.338)
(0.97078 193.448 -92.533)
(0.795418 193.242 -92.297)
(0.968846 193.107 -92.5657)
(-5.64837 195.255 -91.8337)
(-5.88612 195.053 -91.9596)
(-5.69576 194.956 -91.6681)
(-5.4913 195.14 -91.5814)
(-1.4159 197.506 -93.003)
(-1.20265 197.31 -92.8722)
(-5.37354 198.256 -96.2465)
(-30.2896 166.306 -91.8027)
(-29.7308 165.474 -92.4498)
(2.91837 193.224 -98.6088)
(1.31303 195.309 -93.3928)
(1.09258 195.093 -93.0156)
(1.31356 194.895 -93.2294)
(-28.6068 164.362 -90.5987)
(-5.46101 197.553 -94.7146)
(-5.23776 197.687 -94.586)
(-8.22343 177.523 -68.588)
(-0.851175 200.618 -100.027)
(-0.543894 200.503 -99.9169)
(-0.664692 200.655 -100.419)
(-0.240565 200.509 -100.377)
(-4.31285 182.588 -74.5873)
(-4.56788 182.379 -74.4759)
(3.07262 193.65 -98.7082)
(-0.417319 200.652 -100.776)
(-28.8741 164.506 -90.7934)
(2.23774 197.588 -134.235)
(-19.8194 163.01 -96.7793)
(-28.063 167.59 -83.251)
(-25.1267 163.135 -98.6882)
(-1.77868 193.133 -82.084)
(-25.4555 162.858 -96.4454)
(0.595081 191.659 -92.6786)
(0.823031 191.651 -93.1137)
(0.902113 191.478 -93.5364)
(-25.3154 162.859 -96.8774)
(-10.8845 177.414 -75.8549)
(-1.1238 191.274 -80.659)
(-1.16102 191.549 -80.7726)
(-1.28328 191.382 -80.3978)
(-7.07238 192.675 -81.2172)
(-0.895583 189.499 -81.5799)
(-25.036 163.105 -91.944)
(-24.7434 162.999 -92.2886)
(-0.886014 189.305 -82.2432)
(-0.817661 189.582 -82.0577)
(-25.1454 163.01 -92.3464)
(-5.07103 196.713 -92.7827)
(-4.74318 196.79 -92.5773)
(-4.84875 196.987 -92.9291)
(0.406353 191.311 -92.6796)
(0.661621 191.413 -93.035)
(-0.661677 189.976 -82.8849)
(-0.148682 190.337 -103.746)
(-0.758048 189.617 -82.9419)
(-0.518343 190.215 -103.4)
(-0.868495 190.16 -103.604)
(-4.59609 189.041 -88.4222)
(-4.79037 189.102 -88.3675)
(-4.73524 189.135 -88.5865)
(-30.5432 168.402 -92.0405)
(-6.94177 181.434 -80.5191)
(-6.54494 181.41 -80.2066)
(1.13098 191.764 -93.7671)
(-2.54045 189.176 -73.0347)
(-4.75802 189.281 -88.9323)
(-4.68531 189.182 -88.7917)
(-4.85405 189.242 -88.7158)
(-2.12669 189.047 -72.6823)
(-2.35387 189.237 -72.7531)
(-2.05877 190.518 -63.3346)
(-3.52393 185.766 -62.5777)
(-3.35868 185.703 -62.6631)
(-6.19089 180.975 -78.9028)
(-6.10389 181.22 -79.3365)
(-5.82528 181.404 -79.1426)
(-24.496 179.119 -81.4696)
(-24.6864 178.936 -81.1119)
(-15.0977 181.445 -73.8902)
(0.176079 191.175 -92.4506)
(-20.9501 162.836 -95.4272)
(-21.366 162.69 -95.5097)
(0.154265 190.841 -92.8378)
(-7.73286 179.434 -77.5537)
(-4.96518 198.005 -94.8073)
(-4.55201 198.229 -94.7006)
(-29.6828 166.098 -87.2129)
(0.496368 191.182 -92.9913)
(-28.1329 175.965 -83.8391)
(-27.9354 176.228 -84.174)
(-28.1981 175.895 -84.2819)
(-28.3563 175.633 -83.6282)
(-28.4041 175.612 -84.1013)
(-28.6295 175.263 -83.9302)
(0.656455 191.229 -93.282)
(0.710155 191.149 -93.6113)
(-24.866 162.623 -94.9549)
(-25.6239 162.83 -95.3571)
(-3.55804 194.652 -158.83)
(-18.6752 174.014 -74.2622)
(-18.6012 174.202 -73.8036)
(-18.545 174.371 -74.1714)
(-20.2305 173.618 -67.7479)
(-20.3055 173.726 -67.1622)
(-19.8316 173.666 -68.4734)
(-19.691 173.849 -67.9488)
(-19.9668 173.683 -68.0018)
(-19.9382 173.772 -67.6633)
(-8.29784 182.35 -65.4381)
(-0.239585 200.862 -103.012)
(-0.543897 200.953 -102.886)
(-20.1002 173.579 -68.2228)
(-7.92886 182.378 -65.7026)
(-20.3276 173.475 -68.3222)
(-0.406459 190.103 -93.5444)
(-16.522 180.071 -73.8264)
(-16.7963 179.699 -73.8119)
(-1.21441 189.821 -92.8932)
(-0.939134 189.941 -92.9278)
(-16.7704 180.384 -74.0305)
(-0.292846 190.136 -93.9006)
(-29.1565 165.826 -86.9053)
(-1.67276 197.774 -93.2311)
(-1.28329 197.835 -93.4514)
(-30.4402 166.838 -91.945)
(-30.5538 167.007 -91.5359)
(-30.446 166.664 -91.6452)
(-0.180088 190.234 -93.6831)
(-25.1179 162.716 -96.2483)
(-24.7564 162.63 -96.5292)
(-0.223749 190.26 -93.3806)
(-30.5464 166.796 -91.2357)
(-27.6581 176.55 -84.352)
(-27.8885 176.263 -84.6887)
(-28.1577 175.937 -84.6557)
(-5.11968 186.474 -68.7685)
(-1.02249 200.746 -100.417)
(-20.1059 173.521 -68.5722)
(-0.79032 200.792 -100.943)
(-4.88007 199.893 -100.629)
(-19.4888 173.904 -68.3333)
(-19.4591 173.84 -68.8923)
(-19.2344 174.044 -68.6682)
(-28.6597 175.253 -84.4604)
(-28.4012 175.621 -84.5788)
(-19.2491 174.117 -68.2031)
(-28.0912 175.973 -85.1388)
(-29.1273 166.009 -86.4898)
(-23.9181 162.517 -94.7753)
(-24.0053 162.474 -95.4364)
(-23.497 162.453 -95.3036)
(-29.8596 165.413 -90.8272)
(-30.183 165.878 -90.7578)
(-29.5884 165.106 -90.8119)
(-30.2181 166.014 -91.3579)
(-28.9567 164.812 -89.4)
(-28.7731 164.846 -88.8905)
(-29.079 164.975 -89.0732)
(-28.524 164.539 -89.5248)
(-0.0999148 193.868 -91.2687)
(-27.79 176.324 -85.1496)
(-5.67623 196.015 -92.6205)
(-5.54044 196.313 -92.81)
(-5.82333 196.145 -92.9882)
(-6.0745 195.929 -93.1298)
(-5.93205 195.833 -92.7751)
(-24.9347 178.836 -81.6421)
(-25.0765 178.68 -81.3073)
(-18.2933 178.944 -67.0621)
(-18.3921 178.943 -66.6625)
(-18.2467 178.722 -66.8432)
(-18.118 178.45 -66.9776)
(-18.1518 178.677 -67.1913)
(2.10291 199.431 -121.171)
(-23.1134 162.463 -95.2409)
(-18.2035 178.379 -66.5654)
(-18.2467 178.564 -66.6216)
(0.714918 191.012 -94.0714)
(0.906234 191.301 -93.9509)
(-27.2382 164.273 -97.5315)
(0.291251 190.554 -94.1788)
(-23.4373 162.43 -97.5945)
(-1.84645 189.9 -61.6302)
(-2.11779 189.965 -61.5492)
(-18.6901 163.913 -96.0402)
(-26.9022 164.464 -98.7048)
(-18.9595 163.676 -96.1382)
(-19.26 163.538 -95.9545)
(-30.1529 165.873 -89.6389)
(-30.3463 166.157 -89.8154)
(-17.7932 177.114 -68.8471)
(-24.7063 162.618 -94.5438)
(-24.399 162.586 -94.4669)
(-24.9406 162.793 -93.3296)
(-24.3832 162.544 -94.9427)
(-29.7431 165.299 -90.3066)
(-30.004 165.61 -90.391)
(-17.7759 177.036 -68.5347)
(-29.7282 165.429 -89.3089)
(-29.9322 165.623 -89.4211)
(-19.919 163.516 -94.8398)
(-5.69727 191.917 -78.2327)
(-5.85138 191.686 -77.966)
(-5.57519 191.705 -77.9554)
(-29.1347 164.718 -90.5964)
(-29.4471 164.992 -90.4604)
(-29.3138 164.841 -90.9379)
(-23.0429 162.77 -93.5318)
(-22.6074 162.747 -93.914)
(-22.7667 162.84 -93.4327)
(0.74574 193.479 -92.2189)
(-29.4559 164.967 -91.2076)
(-2.32956 186.269 -74.3965)
(-2.24075 186.077 -74.2325)
(-1.5814 198.05 -93.6248)
(-1.26269 198.086 -93.8025)
(-1.56365 198.283 -93.9779)
(-1.88048 198.21 -93.7629)
(-17.8241 176.923 -69.0636)
(-17.8027 176.836 -68.7726)
(-3.21331 199.095 -95.4792)
(-17.8787 176.823 -69.4074)
(-28.0927 164.364 -89.4555)
(-28.2241 164.299 -89.9374)
(-5.07014 197.707 -94.3452)
(-29.1503 164.871 -89.6968)
(-2.87732 189.588 -60.6768)
(-23.9177 162.552 -97.926)
(-4.39593 198.484 -95.0652)
(-3.74816 198.611 -94.739)
(-4.15427 198.447 -94.7267)
(-24.796 162.616 -96.13)
(-29.5371 170.747 -82.4808)
(2.21761 193.767 -95.1629)
(2.35364 194.073 -95.4643)
(-3.79791 189.886 -61.8532)
(-18.2676 164.486 -95.6512)
(-22.0912 162.48 -95.9075)
(2.70298 198.57 -101.849)
(2.67257 198.451 -101.182)
(-18.3456 178.745 -66.5134)
(-1.24898 198.342 -94.2033)
(-1.52372 198.524 -94.3873)
(-1.16322 198.598 -94.6831)
(-25.7483 163.631 -99.1115)
(-25.4766 163.393 -98.9195)
(-3.64401 191.462 -78.1525)
(-25.3425 163.877 -89.6911)
(-24.8545 167.319 -82.7558)
(-20.0938 180.781 -68.5372)
(-19.9528 180.679 -68.8692)
(-20.2786 180.823 -68.7619)
(-20.359 180.884 -68.3913)
(-11.6654 176.364 -72.6739)
(-26.4075 177.704 -84.713)
(-26.5291 177.518 -85.1959)
(-26.8203 177.334 -84.8772)
(-26.6478 165.461 -100.745)
(-26.4515 165.28 -100.888)
(-26.3453 165.024 -100.743)
(-26.9981 177.237 -84.3019)
(-26.6111 177.592 -84.2755)
(-19.2018 174.697 -66.5866)
(-26.4734 177.467 -85.6054)
(-26.8055 177.222 -85.5121)
(-3.92843 198.324 -94.2995)
(-4.03057 198.057 -93.8941)
(-3.68 198.198 -93.9223)
(-28.5208 166.275 -97.5354)
(-5.17217 189.533 -88.7681)
(-4.9536 189.381 -88.8582)
(-5.04629 189.334 -88.603)
(0.141164 190.701 -93.054)
(0.0113983 190.487 -93.2644)
(-27.3458 166.451 -100.32)
(-27.0199 166.422 -100.944)
(-27.0252 165.999 -100.586)
(-30.8609 169.183 -86.6604)
(-2.2972 192.713 -80.4067)
(-2.13876 192.751 -80.6413)
(-2.34528 192.895 -80.6446)
(-2.48735 192.847 -80.4228)
(-2.57501 193.029 -80.6476)
(-20.0481 180.784 -68.1523)
(-20.3176 180.882 -67.9974)
(-20.1483 180.813 -67.6859)
(-23.7854 177.38 -88.8087)
(-23.956 177.499 -88.55)
(-4.98331 194.034 -82.9059)
(-5.57038 191.553 -91.4562)
(1.18101 196.938 -94.5395)
(1.09931 196.667 -94.1118)
(1.33764 196.583 -94.3775)
(1.42086 196.75 -94.6997)
(-23.8693 179.169 -84.2032)
(-23.6082 179.159 -84.5596)
(1.18091 197.254 -94.9507)
(-26.0701 164.402 -100.241)
(-25.733 172.504 -76.9255)
(-27.0572 164.768 -98.9419)
(-19.87 180.696 -67.8068)
(-1.44186 191.18 -79.9841)
(-1.47506 191.599 -80.2212)
(-7.79305 181.9 -67.0469)
(-1.26932 190.024 -79.9508)
(-1.39953 188.128 -82.0068)
(1.24826 198.429 -97.0367)
(-3.52787 191.682 -78.406)
(2.10807 199.433 -103.914)
(-5.96486 193.169 -80.5391)
(-6.23015 193.084 -80.6501)
(-23.8541 162.444 -96.6447)
(-24.0835 162.5 -97.0068)
(2.98424 197.61 -100.283)
(-6.12164 192.745 -79.7518)
(-5.79401 192.974 -79.9533)
(-2.28398 200.592 -99.3058)
(-2.02742 200.49 -98.9258)
(-6.85279 193.187 -84.2184)
(-6.97218 193.015 -84.4227)
(-7.36131 192.456 -83.9098)
(-7.2492 192.675 -83.8618)
(-24.9317 163.55 -100.332)
(-10.3218 178.188 -75.0732)
(-10.3661 178.41 -74.7474)
(-5.86904 192.041 -78.4403)
(3.06267 192.695 -101.187)
(3.27431 193.044 -101.692)
(-24.2937 178.989 -84.287)
(-24.7656 178.777 -84.3191)
(-1.63368 192.999 -82.0381)
(-7.09316 179.113 -68.4458)
(-7.19924 178.778 -68.5233)
(-7.25411 178.991 -68.7152)
(-3.35609 200.791 -101.147)
(-3.70593 200.693 -101.342)
(-3.65778 200.644 -100.906)
(-4.36691 197.904 -93.8938)
(-4.29111 198.176 -94.3152)
(-4.73367 197.879 -94.218)
(-4.63177 197.601 -93.6267)
(1.96341 191.451 -99.3032)
(-19.9263 180.686 -67.3335)
(1.64063 199.789 -121.281)
(1.88905 199.613 -121.052)
(1.74748 191.243 -99.2997)
(-27.8031 164.795 -97.2765)
(-27.6178 164.629 -97.4015)
(-18.7635 174.525 -68.6749)
(-18.9855 174.253 -68.8768)
(0.671463 196.946 -93.8722)
(0.818981 196.72 -93.8038)
(0.895057 196.991 -94.1993)
(-6.17154 182.06 -72.9571)
(-5.88388 182.165 -72.8097)
(-6.0795 182.24 -72.6169)
(-19.7514 180.646 -68.164)
(-20.1259 162.885 -96.7439)
(-1.18071 190.131 -103.876)
(-20.3205 162.666 -97.9387)
(-20.1998 162.742 -97.5329)
(-18.2496 179.116 -68.2313)
(-17.9259 176.97 -69.7249)
(-27.7421 164.274 -89.3487)
(-27.6423 164.405 -88.8379)
(-27.9541 164.43 -89.0464)
(-18.4516 178.872 -69.9206)
(-18.2796 178.62 -69.7591)
(-18.2953 178.411 -70.101)
(-18.7261 179.387 -69.7707)
(-18.5441 179.222 -69.5574)
(-18.5689 179.109 -69.8538)
(-18.7155 179.208 -70.0849)
(-28.3925 172.931 -80.6384)
(-22.871 162.384 -96.3929)
(-27.8291 173.149 -79.9296)
(-26.1189 177.822 -85.195)
(-26.7456 177.497 -83.7997)
(-27.2707 176.916 -84.8433)
(-27.153 176.95 -85.33)
(-30.7113 167.826 -91.3055)
(-30.7359 168.231 -91.1868)
(-30.6491 168.156 -91.6462)
(-30.7435 167.555 -90.9466)
(-30.6007 167.779 -91.8639)
(-6.87172 194.32 -93.4683)
(-6.94821 194.251 -93.7642)
(-6.90268 194.102 -93.4688)
(-7.00975 194.085 -94.0194)
(-6.95822 193.954 -93.6758)
(-6.99332 194.455 -94.1643)
(-6.78897 194.536 -93.3324)
(-0.167118 200.577 -100.833)
(0.00788563 200.467 -100.63)
(-0.186492 200.373 -99.9076)
(0.0610345 200.349 -100.217)
(-21.0218 162.497 -98.1375)
(-21.3652 162.453 -97.7383)
(-21.4536 162.433 -98.0751)
(-18.4978 179.822 -74.639)
(-18.0566 180.029 -74.487)
(-3.59764 188.884 -76.637)
(-3.86435 189.09 -76.5317)
(-3.8966 188.731 -76.3716)
(-4.06516 189.069 -88.9323)
(-4.30705 189.083 -88.8609)
(-4.16451 189.143 -89.0969)
(-0.738562 200.247 -98.787)
(-0.870713 200.485 -99.476)
(-1.18356 200.392 -98.9021)
(3.73729 195.581 -101.772)
(3.69356 195.958 -101.65)
(-29.2472 172.33 -81.9558)
(-29.2829 172.67 -82.1434)
(-29.6248 172.09 -82.7055)
(-29.5654 171.802 -82.4946)
(3.68055 195.651 -101.322)
(3.61814 195.962 -101.081)
(1.01612 190.734 -98.6452)
(0.226378 200.36 -100.59)
(0.157782 200.162 -99.6787)
(1.55725 191.002 -100.906)
(-30.5272 166.619 -90.941)
(1.40588 190.891 -101.179)
(-30.8106 168.053 -90.7303)
(-30.8137 167.608 -90.4541)
(-17.8898 176.986 -67.3406)
(-17.8891 176.767 -67.506)
(-9.72804 179.294 -74.3813)
(-9.37463 179.246 -74.6934)
(-9.19542 179.641 -74.4799)
(-3.29293 192.176 -79.0143)
(-3.03858 192.268 -79.2646)
(-3.39332 192.421 -79.2349)
(-29.9639 170.429 -92.1004)
(-28.2547 168.058 -98.9169)
(-3.54394 192.205 -78.9172)
(-3.37485 191.928 -78.7171)
(-3.54921 198.467 -94.3406)
(-3.37209 198.701 -94.7123)
(-28.4618 167.965 -98.4227)
(-28.1174 165.931 -98.1793)
(-30.1671 170.062 -91.9157)
(-28.0365 165.603 -97.987)
(-28.3471 165.924 -97.6175)
(-19.8319 180.667 -68.537)
(-8.80831 180.05 -74.4492)
(-8.64227 179.843 -74.7462)
(-20.8072 162.527 -98.672)
(-18.4763 179.247 -69.2713)
(0.500706 194.207 -92.0195)
(-27.4815 164.442 -97.3301)
(-26.1945 177.634 -85.7524)
(-25.929 177.837 -85.6667)
(-30.2939 166.112 -89.4183)
(-0.747627 192.086 -90.4339)
(-30.446 166.365 -89.4567)
(-20.8775 163.26 -94.0848)
(-21.3519 163.154 -93.7819)
(-20.6691 163.47 -93.8243)
(0.806696 190.555 -101.66)
(-1.83865 200.77 -100.019)
(-1.54712 200.695 -99.7979)
(-3.18511 198.508 -94.2618)
(-2.45455 198.463 -94.0773)
(-2.09208 200.949 -100.903)
(-1.7558 200.921 -100.784)
(-3.02395 188.376 -77.0021)
(0.603569 198.417 -96.0009)
(-4.21976 194.271 -87.2676)
(-4.05938 194.412 -87.0042)
(-3.93562 194.303 -87.2359)
(-3.96952 194.152 -87.4728)
(-2.20657 187.739 -78.2694)
(-2.19983 187.289 -78.5661)
(-19.648 180.553 -67.533)
(-2.25228 190.431 -62.7414)
(-2.02542 190.364 -62.7893)
(-26.3519 177.849 -83.4709)
(-26.6201 177.602 -83.1601)
(-19.5672 180.536 -67.9568)
(-7.80135 190.638 -77.6614)
(3.1838 195.197 -98.482)
(-19.3689 180.384 -67.6698)
(-5.67631 197.078 -94.1663)
(-5.96595 196.918 -94.5029)
(-5.89325 196.738 -93.991)
(-25.2987 178.647 -82.6677)
(-24.8512 178.941 -82.4818)
(-5.41221 191.165 -77.3749)
(-5.5859 190.898 -77.1087)
(-5.27343 190.832 -77.0823)
(-0.703234 188.662 -65.8106)
(-21.1887 180.921 -68.9135)
(-21.4054 180.954 -68.5484)
(-21.0831 180.976 -68.4897)
(-12.0977 182.254 -73.5105)
(-0.389121 198.58 -95.1975)
(-0.115054 198.4 -95.1195)
(-22.814 162.391 -97.9574)
(-4.36068 196.538 -91.9984)
(-4.32146 196.215 -91.6135)
(-4.01414 196.475 -91.7388)
(-20.8894 180.938 -68.7931)
(-20.926 180.892 -69.1149)
(-4.05698 196.22 -91.4777)
(-3.8263 196.304 -91.4666)
(-3.69238 196.531 -91.6688)
(-18.8729 179.948 -67.6923)
(-19.0834 180.161 -67.7752)
(-2.67688 184.652 -71.6104)
(-3.80316 196.697 -91.906)
(3.42438 193.938 -100.35)
(-2.5241 184.614 -72.1354)
(-2.69546 184.482 -71.9275)
(-8.20323 181.149 -68.6423)
(-19.0414 180.062 -67.3354)
(-1.67805 201.125 -102.39)
(-1.59972 201.085 -101.99)
(-1.38812 201.094 -102.338)
(-22.8281 162.429 -98.4397)
(-23.1811 162.425 -97.9562)
(-19.2401 180.255 -67.4353)
(-26.8396 168.836 -101.914)
(-1.47802 201.124 -102.646)
(-8.4377 184.153 -71.7981)
(-8.73658 184.126 -72.0142)
(-8.566 183.822 -71.9941)
(-1.86492 201.114 -102.143)
(-23.9189 162.767 -99.1977)
(-24.2667 162.913 -99.3105)
(-3.68768 194.387 -87.0449)
(-6.82354 193.47 -92.9955)
(-6.8913 193.448 -93.2964)
(-24.6619 163.25 -99.8973)
(-8.70365 179.496 -75.0525)
(-28.4354 165.724 -97.1509)
(-3.15637 200.922 -101.692)
(-2.94202 200.913 -101.272)
(-2.8333 200.996 -101.726)
(-9.8078 178.96 -74.622)
(-29.2449 173.72 -82.8878)
(-29.4896 173.204 -83.0891)
(-29.2824 173.332 -82.5661)
(-29.198 165.541 -87.6387)
(-29.4539 165.659 -87.8039)
(-5.45119 193.458 -80.8193)
(-5.5056 193.3 -80.463)
(-5.21259 193.45 -80.6594)
(-30.7322 169.169 -90.6029)
(-30.7591 169.338 -90.2287)
(-30.6569 169.155 -91.0115)
(-24.2247 162.57 -97.4408)
(-24.4972 162.595 -96.9552)
(-30.5445 169.938 -90.4921)
(-29.5007 172.838 -82.7754)
(-29.4313 172.646 -82.4726)
(-29.2942 172.969 -82.3171)
(-8.01667 178.402 -69.6421)