/*--------------------------------*- C++ -*----------------------------------*\
  =========                 |
  \\      /  F ield         | OpenFOAM: The Open Source CFD Toolbox
   \\    /   O peration     | Website:  https://openfoam.org
    \\  /    A nd           | Version:  6
     \\/     M anipulation  |
\*---------------------------------------------------------------------------*/
FoamFile
{
    version     2.0;
    format      ascii;
    class       extendedFeatureEdgeMesh;
    location    "constant/extendedFeatureEdgeMesh";
    object      inlet.extendedFeatureEdgeMesh;
}
// * * * * * * * * * * * * * * * * * * * * * * * * * * * * * * * * * * * * * //

// points

374
(
(-21.979 171.088 -104.47)
(-22.4685 171.233 -104.87)
(-22.1604 171.932 -104.719)
(-18.0455 166.462 -100.81)
(-17.6962 166.082 -100.489)
(-18.3539 165.728 -100.957)
(-20.1676 174.585 -103.504)
(-20.2649 173.932 -103.497)
(-20.6809 174.417 -103.883)
(-19.877 173.514 -103.141)
(-19.4016 173.601 -102.781)
(-19.5397 173.062 -102.82)
(-19.6484 174.183 -103.048)
(-19.0642 174.068 -102.577)
(-18.9839 173.331 -102.421)
(-22.4327 165.128 -104.062)
(-21.9658 165.288 -103.718)
(-22.2016 164.608 -103.815)
(-19.7346 163.765 -101.783)
(-19.6843 164.605 -101.851)
(-19.2163 164.175 -101.431)
(-24.1473 167.994 -105.766)
(-24.0289 167.222 -105.575)
(-24.503 167.566 -105.989)
(-17.5606 166.827 -100.479)
(-18.184 167.042 -100.992)
(-21.9295 167.331 -103.951)
(-22.1974 166.661 -104.074)
(-22.4216 167.34 -104.336)
(-18.1922 171.693 -101.593)
(-17.7838 171.161 -101.207)
(-18.5266 171.11 -101.78)
(-20.1541 171.923 -103.153)
(-20.5168 172.033 -103.45)
(-20.3265 172.514 -103.363)
(-20.9987 173.619 -104.029)
(-21.5281 173.961 -104.486)
(-21.1646 174.301 -104.245)
(-19.9681 172.968 -103.142)
(-20.9648 174.736 -104.145)
(-16.1558 172.266 -100.078)
(-15.6365 172.165 -99.6604)
(-16.0324 171.497 -99.8838)
(-18.7262 167.158 -101.43)
(-19.1787 166.647 -101.718)
(-19.2265 167.267 -101.835)
(-21.0435 166.492 -103.153)
(-21.0171 165.752 -103.038)
(-21.6821 165.998 -103.588)
(-23.3074 166.174 -104.878)
(-22.7003 166.16 -104.403)
(-22.9333 165.424 -104.49)
(-20.3408 173.257 -103.469)
(-22.3324 173.216 -105.018)
(-22.7697 172.813 -105.307)
(-22.8042 173.329 -105.4)
(-20.6399 171.509 -103.479)
(-20.9502 172.113 -103.799)
(-17.6055 172.099 -101.188)
(-18.2483 172.426 -101.731)
(-21.0916 171.113 -103.781)
(-21.0446 171.579 -103.804)
(-22.6623 172.247 -105.151)
(-23.0903 172.321 -105.494)
(-19.1831 168.358 -101.94)
(-19.811 168.331 -102.427)
(-19.4031 168.819 -102.171)
(-22.8496 171.666 -105.223)
(-23.4916 171.723 -105.731)
(-21.4789 165.376 -103.35)
(-18.8412 168.896 -101.742)
(-19.3183 169.543 -102.197)
(-20.8944 168.305 -103.268)
(-21.1524 169.015 -103.56)
(-20.6534 169.005 -103.17)
(-21.0322 165.096 -102.965)
(-21.5972 164.637 -103.347)
(-21.9659 169.451 -104.25)
(-22.5766 169.059 -104.677)
(-22.4331 169.889 -104.671)
(-22.8084 166.797 -104.568)
(-24.5338 167.89 -106.054)
(-15.7805 172.696 -99.8406)
(-15.4721 172.653 -99.5944)
(-21.4482 171.537 -104.113)
(-20.8554 163.634 -102.641)
(-21.211 163.29 -102.874)
(-21.3092 163.923 -103.032)
(-20.7304 164.159 -102.61)
(-20.3909 163.731 -102.291)
(-22.822 164.566 -104.294)
(-20.4567 166.225 -102.661)
(-22.4376 170.601 -104.766)
(-18.8463 171.878 -102.127)
(-19.0017 170.396 -102.059)
(-19.4469 170.087 -102.367)
(-19.603 170.54 -102.547)
(-19.8781 169.885 -102.677)
(-20.3218 168.677 -102.869)
(-20.3171 169.346 -102.951)
(-22.3625 172.574 -104.959)
(-19.4858 167.714 -102.094)
(-19.7353 167.02 -102.2)
(-23.7959 168.635 -105.574)
(-23.461 167.843 -105.211)
(-15.3369 172.384 -99.4547)
(-15.2139 172.105 -99.3231)
(-15.3401 171.47 -99.3404)
(-19.7159 166.184 -102.078)
(-20.0997 166.603 -102.431)
(-20.4262 167.135 -102.753)
(-20.8278 167.667 -103.135)
(-21.4044 167.648 -103.582)
(-21.4964 170.894 -104.069)
(-21.098 167.165 -103.281)
(-19.8138 172.508 -102.963)
(-21.5355 166.854 -103.583)
(-22.0108 163.945 -103.582)
(-15.549 166.879 -98.9164)
(-15.2946 166.4 -98.6567)
(-15.6629 166.195 -98.9178)
(-15.0686 167.016 -98.5591)
(-15.1751 166.705 -98.6025)
(-16.5189 167.423 -99.7424)
(-16.8904 166.867 -99.9611)
(-17.0848 167.671 -100.216)
(-16.2349 166.862 -99.4491)
(-18.6844 164.177 -101.017)
(-18.4782 163.476 -100.766)
(-19.0243 163.417 -101.185)
(-16.1698 172.979 -100.18)
(-15.7782 173.157 -99.8977)
(-21.5552 172.261 -104.289)
(-21.8648 172.653 -104.581)
(-15.6196 172.911 -99.7425)
(-22.0372 168.664 -104.205)
(-15.9677 167.675 -99.3447)
(-15.2552 167.596 -98.7788)
(-16.4916 168.113 -99.8094)
(-16.6291 172.601 -100.49)
(-17.0476 172.249 -100.772)
(-17.1274 172.821 -100.907)
(-16.9308 173.921 -100.894)
(-16.7231 174.199 -100.768)
(-16.5154 174.018 -100.583)
(-22.684 168.134 -104.642)
(-23.2148 168.678 -105.126)
(-19.84 169.1 -102.547)
(-20.6063 164.741 -102.588)
(-21.0246 164.521 -102.886)
(-17.8328 174.349 -101.653)
(-17.8312 173.647 -101.562)
(-18.3783 174.005 -102.034)
(-23.7786 165.188 -105.119)
(-23.5191 165.428 -104.948)
(-23.631 164.93 -104.971)
(-19.0575 162.839 -101.137)
(-18.798 162.911 -100.943)
(-18.2929 170.393 -101.506)
(-17.7307 170.347 -101.061)
(-17.9972 169.692 -101.186)
(-17.3178 169.796 -100.669)
(-17.7947 168.979 -100.936)
(-18.9763 164.932 -101.341)
(-20.8893 170.07 -103.49)
(-21.181 170.449 -103.766)
(-20.571 170.689 -103.321)
(-23.9052 170.488 -105.896)
(-23.372 170.686 -105.505)
(-23.5097 170.027 -105.528)
(-22.9653 170.256 -105.133)
(-23.7147 171.06 -105.82)
(-21.6283 169.031 -103.934)
(-21.3198 169.676 -103.775)
(-24.1869 169.113 -105.94)
(-24.4739 169.534 -106.217)
(-24.0312 169.827 -105.91)
(-21.5301 168.402 -103.776)
(-23.6292 169.31 -105.53)
(-23.0497 169.487 -105.1)
(-17.9497 168.281 -100.968)
(-18.4103 167.859 -101.273)
(-18.3533 168.602 -101.324)
(-15.5768 168.167 -99.1026)
(-18.6352 169.734 -101.689)
(-15.985 168.514 -99.4654)
(-16.1202 169.359 -99.6789)
(-15.7072 169.122 -99.3265)
(-15.6367 169.729 -99.3491)
(-16.536 168.85 -99.9382)
(-20.7997 169.543 -103.353)
(-17.2371 170.767 -100.73)
(-24.1818 170.824 -106.155)
(-23.2673 171.226 -105.493)
(-22.9017 170.917 -105.168)
(-24.3551 170.187 -106.208)
(-24.2755 170.507 -106.187)
(-15.7461 170.839 -99.5763)
(-15.1726 170.731 -99.1152)
(-15.5476 170.283 -99.3504)
(-19.5429 171.826 -102.664)
(-19.9541 171.191 -102.904)
(-18.9517 167.744 -101.681)
(-15.569 165.813 -98.7956)
(-15.7232 165.532 -98.88)
(-15.8555 165.778 -99.0146)
(-20.3928 167.911 -102.827)
(-19.9794 167.656 -102.472)
(-18.1945 174.645 -101.973)
(-15.0748 168.389 -98.7395)
(-15.4565 168.742 -99.0824)
(-14.9865 169.129 -98.7653)
(-18.2873 169.162 -101.344)
(-24.2607 168.566 -105.927)
(-15.3436 169.334 -99.0699)
(-17.8018 167.669 -100.775)
(-17.4409 168.303 -100.574)
(-18.7274 168.291 -101.576)
(-16.0651 170.094 -99.7299)
(-16.2299 170.735 -99.9403)
(-17.1499 168.975 -100.433)
(-20.435 169.969 -103.123)
(-15.0879 170.01 -98.9569)
(-16.6845 171.078 -100.339)
(-14.8292 167.979 -98.4955)
(-21.8715 170.312 -104.287)
(-16.6315 169.547 -100.102)
(-24.5389 168.875 -106.184)
(-19.2584 171.183 -102.36)
(-16.6671 164.864 -99.5309)
(-17.1365 164.293 -99.824)
(-17.2764 165.036 -100.028)
(-17.3581 165.657 -100.171)
(-17.8138 165.323 -100.484)
(-16.6212 173.41 -100.588)
(-16.3169 173.822 -100.403)
(-16.5662 166.227 -99.6264)
(-17.1515 166.189 -100.078)
(-18.3076 164.808 -100.803)
(-17.7419 164.586 -100.334)
(-18.1652 164.061 -100.597)
(-23.4277 167.045 -105.083)
(-23.8863 166.513 -105.373)
(-14.9752 167.333 -98.5268)
(-19.0862 165.885 -101.548)
(-19.6162 165.342 -101.892)
(-16.8649 164.074 -99.5841)
(-17.0863 163.875 -99.7315)
(-17.6593 163.876 -100.178)
(-22.0044 167.907 -104.083)
(-18.6001 166.513 -101.25)
(-14.701 169.624 -98.6058)
(-18.7456 172.626 -102.144)
(-18.3282 173.191 -101.891)
(-16.1273 173.613 -100.228)
(-16.4463 164.511 -99.3135)
(-16.6516 164.286 -99.4448)
(-20.1912 164.333 -102.212)
(-16.0023 166.261 -99.1909)
(-16.6684 170.355 -100.234)
(-20.5803 165.455 -102.659)
(-22.9534 167.424 -104.762)
(-16.9149 165.6 -99.8183)
(-23.9558 171.44 -106.057)
(-19.9319 175.056 -103.381)
(-19.6633 174.776 -103.135)
(-20.0663 170.455 -102.897)
(-24.3283 166.622 -105.732)
(-23.8246 171.737 -105.993)
(-23.6814 172.027 -105.918)
(-22.312 163.476 -103.757)
(-22.0882 163.326 -103.563)
(-16.3103 165.535 -99.3383)
(-16.0642 164.999 -99.0779)
(-19.1883 174.673 -102.751)
(-17.1627 174.514 -101.151)
(-17.351 174.145 -101.251)
(-17.3932 174.647 -101.348)
(-21.701 174.318 -104.666)
(-21.936 174.149 -104.828)
(-22.1635 173.964 -104.982)
(-21.9902 173.719 -104.815)
(-22.3854 173.766 -105.129)
(-21.6746 173.294 -104.515)
(-22.9998 173.092 -105.522)
(-23.1862 172.842 -105.636)
(-20.1049 162.722 -101.939)
(-20.3654 162.738 -102.144)
(-20.1131 163.113 -101.995)
(-19.2655 172.487 -102.532)
(-17.2594 173.437 -101.089)
(-16.6115 171.841 -100.38)
(-17.1546 171.52 -100.762)
(-22.5988 173.555 -105.269)
(-23.2862 164.909 -104.7)
(-23.3029 164.449 -104.654)
(-17.7099 172.935 -101.376)
(-19.3189 162.784 -101.333)
(-19.5701 163.126 -101.573)
(-21.4609 174.474 -104.499)
(-24.458 167.247 -105.913)
(-20.7106 174.841 -103.96)
(-19.4075 175.114 -102.979)
(-21.6643 163.463 -103.25)
(-24.4211 169.861 -106.218)
(-18.6915 174.63 -102.358)
(-14.8507 170.909 -98.8868)
(-14.7924 170.594 -98.8011)
(-22.5197 164.108 -103.999)
(-24.5132 169.205 -106.206)
(-18.0703 163.54 -100.456)
(-20.105 165.63 -102.31)
(-20.1518 165.051 -102.273)
(-14.7172 169.951 -98.6602)
(-15.4258 166.103 -98.721)
(-16.9251 168.409 -100.185)
(-14.8953 167.654 -98.5055)
(-18.2861 163.104 -100.569)
(-18.5403 162.999 -100.754)
(-17.5492 163.521 -100.047)
(-17.3139 163.69 -99.8853)
(-17.7893 163.364 -100.215)
(-19.8434 162.726 -101.735)
(-14.7373 168.636 -98.5078)
(-24.5494 168.217 -106.108)
(-20.6232 162.771 -102.349)
(-20.7003 163.124 -102.454)
(-22.343 165.789 -104.077)
(-18.0353 163.227 -100.389)
(-19.5807 162.747 -101.533)
(-21.3138 172.776 -104.167)
(-22.7353 163.823 -104.131)
(-22.5276 163.642 -103.946)
(-24.0365 165.735 -105.391)
(-23.8054 165.875 -105.228)
(-23.914 165.456 -105.259)
(-14.9223 171.219 -98.9823)
(-24.1464 166.023 -105.513)
(-23.4725 164.684 -104.816)
(-15.104 171.818 -99.2006)
(-16.2505 164.749 -99.1911)
(-24.5509 168.545 -106.151)
(-23.5272 172.308 -105.834)
(-23.3618 172.58 -105.739)
(-17.6306 174.765 -101.548)
(-17.873 174.866 -101.75)
(-20.8132 172.829 -103.783)
(-20.8786 162.822 -102.555)
(-14.7475 170.274 -98.7252)
(-21.2154 174.613 -104.325)
(-20.1934 175.001 -103.577)
(-20.4528 174.929 -103.771)
(-15.0067 171.521 -99.0869)
(-24.3998 166.932 -105.827)
(-19.146 175.117 -102.775)
(-15.8885 165.26 -98.9742)
(-24.0752 171.135 -106.111)
(-23.1234 164.227 -104.486)
(-21.8576 163.193 -103.366)
(-22.9338 164.018 -104.311)
(-24.2439 166.319 -105.627)
(-14.6993 169.295 -98.5624)
(-21.6202 163.076 -103.166)
(-14.7766 168.306 -98.4963)
(-16.9388 174.364 -100.957)
(-21.3778 162.975 -102.964)
(-21.13 162.89 -102.76)
(-14.7116 168.965 -98.5298)
(-19.67 175.094 -103.181)
(-18.8854 175.103 -102.57)
(-18.6276 175.069 -102.365)
(-15.9478 173.391 -100.06)
(-18.1208 174.95 -101.954)
(-18.3722 175.018 -102.159)
)

// edges

1001
(
(89 85)
(156 129)
(160 161)
(167 192)
(167 176)
(6 264)
(68 268)
(36 279)
(280 281)
(54 285)
(288 286)
(53 293)
(36 299)
(172 135)
(248 321)
(333 334)
(129 318)
(342 68)
(6 351)
(90 357)
(63 342)
(8 351)
(154 294)
(208 373)
(3 25)
(37 39)
(43 44)
(75 76)
(77 135)
(129 157)
(171 168)
(77 173)
(73 173)
(265 6)
(269 68)
(281 282)
(284 54)
(297 298)
(129 297)
(301 8)
(248 310)
(319 248)
(326 86)
(334 335)
(337 334)
(63 343)
(254 130)
(350 6)
(22 353)
(171 356)
(142 364)
(177 135)
(368 265)
(373 305)
(2 0)
(6 7)
(7 8)
(11 9)
(12 13)
(10 12)
(13 14)
(14 10)
(23 21)
(21 22)
(22 23)
(24 3)
(27 28)
(28 26)
(30 31)
(32 33)
(35 36)
(38 9)
(39 8)
(41 42)
(45 43)
(44 45)
(46 47)
(47 48)
(49 50)
(35 7)
(53 54)
(56 57)
(59 58)
(60 61)
(54 62)
(65 66)
(38 34)
(48 69)
(69 16)
(66 71)
(70 66)
(74 72)
(76 69)
(77 78)
(78 79)
(50 80)
(27 50)
(41 82)
(84 57)
(57 61)
(85 86)
(87 85)
(12 7)
(15 90)
(46 91)
(91 47)
(0 92)
(31 93)
(96 94)
(95 96)
(95 71)
(74 99)
(98 74)
(62 100)
(101 45)
(45 102)
(21 103)
(41 105)
(41 107)
(107 42)
(109 102)
(108 109)
(102 108)
(110 109)
(109 91)
(111 112)
(84 113)
(113 0)
(110 46)
(115 38)
(11 115)
(116 26)
(112 116)
(117 17)
(120 118)
(119 120)
(122 118)
(125 123)
(124 125)
(129 127)
(131 82)
(82 130)
(2 133)
(82 134)
(135 78)
(136 137)
(137 118)
(118 136)
(125 138)
(140 141)
(142 143)
(138 136)
(148 149)
(150 151)
(154 155)
(116 48)
(30 158)
(158 31)
(160 158)
(162 160)
(19 163)
(165 166)
(164 165)
(163 127)
(167 168)
(168 170)
(170 169)
(92 79)
(170 92)
(172 77)
(173 172)
(176 174)
(172 73)
(177 172)
(178 176)
(146 178)
(182 180)
(184 70)
(71 184)
(186 187)
(188 187)
(190 73)
(173 190)
(191 161)
(192 171)
(171 193)
(193 168)
(198 199)
(200 201)
(201 32)
(193 68)
(67 193)
(103 178)
(146 103)
(204 205)
(65 206)
(98 65)
(207 206)
(65 207)
(152 208)
(208 150)
(115 34)
(209 210)
(210 211)
(211 209)
(46 116)
(92 194)
(212 160)
(174 103)
(210 187)
(210 185)
(216 125)
(215 216)
(125 215)
(217 64)
(78 146)
(197 218)
(220 216)
(221 190)
(190 164)
(102 207)
(188 222)
(100 53)
(53 133)
(137 209)
(92 225)
(225 79)
(74 190)
(189 226)
(226 186)
(145 78)
(227 174)
(218 188)
(199 188)
(101 65)
(202 217)
(110 111)
(111 206)
(206 72)
(115 32)
(115 200)
(114 111)
(96 228)
(113 165)
(165 225)
(225 113)
(229 230)
(212 182)
(182 70)
(232 233)
(233 4)
(235 234)
(234 144)
(124 236)
(237 24)
(239 240)
(49 242)
(241 49)
(67 62)
(2 67)
(137 243)
(108 91)
(163 245)
(244 163)
(99 221)
(221 97)
(247 230)
(239 230)
(249 145)
(135 249)
(244 250)
(250 5)
(106 107)
(211 222)
(251 211)
(253 59)
(229 255)
(18 257)
(258 120)
(120 205)
(259 161)
(30 191)
(47 260)
(145 261)
(261 104)
(237 262)
(171 263)
(60 166)
(264 265)
(104 22)
(221 166)
(266 221)
(96 201)
(201 228)
(60 113)
(22 242)
(267 22)
(242 267)
(202 45)
(270 117)
(229 262)
(259 218)
(218 226)
(226 259)
(272 273)
(273 229)
(12 274)
(276 277)
(25 215)
(215 24)
(272 258)
(236 258)
(58 30)
(53 281)
(283 53)
(57 34)
(36 283)
(290 234)
(234 141)
(292 291)
(291 223)
(28 261)
(289 93)
(294 90)
(295 294)
(35 8)
(298 129)
(22 300)
(225 173)
(302 274)
(265 302)
(303 87)
(176 304)
(223 259)
(305 208)
(180 215)
(215 181)
(307 198)
(90 17)
(309 174)
(184 158)
(160 184)
(310 240)
(184 94)
(245 312)
(58 140)
(47 69)
(203 120)
(220 189)
(138 189)
(185 138)
(59 93)
(233 239)
(147 99)
(245 108)
(108 244)
(154 49)
(44 250)
(18 129)
(248 320)
(321 310)
(288 298)
(19 312)
(211 323)
(201 166)
(324 21)
(326 287)
(310 317)
(236 262)
(241 22)
(5 233)
(148 260)
(260 312)
(327 50)
(257 89)
(298 329)
(220 226)
(288 89)
(89 18)
(97 96)
(85 326)
(241 261)
(261 80)
(330 57)
(257 148)
(312 257)
(151 296)
(253 151)
(222 198)
(117 332)
(228 31)
(63 285)
(155 294)
(12 265)
(82 40)
(48 327)
(96 266)
(42 197)
(194 67)
(296 58)
(330 35)
(35 346)
(151 290)
(44 108)
(347 326)
(11 14)
(14 289)
(222 348)
(149 87)
(130 234)
(352 107)
(182 217)
(250 25)
(3 250)
(51 327)
(327 15)
(161 220)
(91 260)
(240 127)
(87 117)
(133 330)
(250 43)
(12 9)
(9 7)
(290 276)
(152 14)
(335 154)
(139 234)
(272 355)
(140 291)
(198 107)
(230 320)
(163 5)
(28 249)
(271 303)
(4 24)
(253 14)
(330 283)
(283 35)
(151 276)
(133 283)
(57 346)
(242 337)
(334 154)
(226 161)
(361 211)
(303 362)
(363 209)
(86 366)
(303 117)
(231 239)
(262 231)
(112 249)
(205 355)
(24 125)
(208 345)
(193 194)
(139 291)
(40 291)
(42 291)
(150 276)
(369 274)
(370 305)
(277 150)
(130 371)
(276 364)
(0 1)
(1 2)
(5 3)
(4 5)
(3 4)
(8 6)
(9 10)
(10 11)
(13 10)
(16 17)
(17 15)
(15 16)
(19 20)
(18 19)
(20 18)
(25 24)
(26 27)
(31 29)
(29 30)
(34 32)
(33 34)
(36 37)
(37 35)
(11 38)
(8 37)
(42 40)
(40 41)
(48 46)
(51 49)
(50 51)
(52 35)
(7 52)
(55 53)
(54 55)
(57 33)
(33 56)
(58 29)
(29 59)
(61 56)
(56 60)
(62 63)
(63 54)
(64 65)
(66 64)
(52 38)
(34 52)
(67 68)
(63 67)
(68 63)
(16 48)
(71 70)
(73 74)
(72 73)
(69 75)
(79 77)
(80 27)
(81 21)
(82 83)
(83 41)
(61 84)
(86 87)
(88 89)
(85 88)
(6 12)
(51 15)
(90 51)
(92 1)
(93 29)
(94 95)
(97 95)
(71 97)
(99 98)
(2 62)
(100 2)
(102 101)
(104 21)
(103 104)
(106 41)
(91 110)
(112 72)
(72 111)
(0 84)
(46 114)
(114 110)
(26 112)
(17 76)
(76 117)
(118 119)
(118 121)
(123 124)
(126 124)
(123 126)
(127 128)
(128 129)
(130 131)
(132 2)
(133 132)
(138 123)
(141 139)
(139 140)
(144 142)
(145 104)
(146 145)
(104 146)
(136 123)
(66 147)
(147 71)
(149 75)
(75 148)
(152 150)
(151 152)
(153 154)
(27 116)
(48 27)
(159 158)
(30 159)
(159 160)
(161 162)
(163 20)
(166 164)
(127 20)
(168 169)
(169 167)
(167 171)
(79 170)
(175 176)
(174 175)
(73 177)
(176 169)
(169 178)
(179 146)
(178 179)
(180 181)
(181 182)
(183 137)
(136 183)
(185 186)
(187 185)
(186 188)
(189 186)
(185 189)
(161 159)
(159 191)
(158 94)
(94 31)
(194 170)
(168 194)
(167 195)
(196 167)
(199 197)
(197 198)
(32 200)
(202 181)
(181 43)
(43 202)
(205 203)
(206 98)
(110 206)
(207 110)
(49 80)
(116 114)
(194 1)
(176 195)
(162 212)
(178 174)
(213 174)
(103 213)
(187 214)
(214 210)
(188 214)
(64 70)
(70 217)
(179 78)
(218 219)
(219 197)
(216 162)
(162 220)
(147 65)
(98 147)
(164 221)
(207 101)
(222 214)
(133 100)
(219 223)
(42 219)
(223 42)
(224 137)
(209 224)
(180 162)
(216 180)
(171 68)
(190 99)
(212 70)
(184 212)
(135 145)
(213 227)
(129 20)
(186 218)
(218 199)
(110 102)
(170 179)
(179 169)
(64 101)
(217 181)
(202 64)
(72 98)
(228 94)
(231 229)
(230 231)
(210 183)
(183 185)
(182 162)
(4 232)
(237 124)
(236 237)
(24 124)
(238 239)
(240 238)
(242 241)
(121 137)
(209 183)
(245 244)
(97 99)
(230 246)
(230 248)
(248 239)
(5 244)
(222 251)
(59 252)
(252 253)
(254 234)
(52 9)
(231 233)
(232 231)
(256 229)
(257 19)
(205 258)
(191 259)
(75 47)
(260 75)
(232 237)
(262 232)
(263 68)
(165 60)
(166 266)
(84 60)
(101 202)
(117 271)
(272 229)
(262 272)
(274 13)
(275 276)
(278 36)
(25 43)
(181 25)
(205 272)
(272 236)
(112 177)
(177 72)
(281 283)
(287 288)
(11 289)
(289 115)
(281 36)
(141 290)
(223 292)
(145 28)
(93 200)
(200 289)
(282 53)
(90 295)
(296 290)
(141 296)
(258 118)
(279 281)
(258 126)
(126 118)
(299 37)
(77 225)
(274 265)
(86 303)
(0 225)
(191 223)
(152 305)
(132 57)
(84 132)
(198 306)
(17 308)
(308 90)
(240 248)
(173 165)
(164 173)
(259 219)
(311 245)
(312 311)
(222 313)
(140 292)
(292 58)
(120 314)
(189 315)
(315 220)
(315 138)
(125 315)
(19 245)
(93 252)
(238 233)
(316 137)
(97 147)
(128 317)
(318 128)
(214 211)
(51 154)
(244 44)
(298 18)
(298 322)
(322 288)
(149 76)
(323 209)
(166 56)
(56 201)
(325 326)
(128 310)
(104 241)
(238 5)
(238 127)
(163 238)
(312 148)
(27 327)
(328 310)
(88 257)
(18 288)
(94 71)
(80 241)
(132 330)
(84 2)
(308 332)
(331 308)
(296 253)
(307 222)
(308 117)
(87 88)
(88 148)
(80 28)
(216 315)
(198 336)
(289 252)
(58 141)
(294 338)
(40 130)
(339 107)
(229 340)
(266 201)
(21 213)
(4 237)
(324 213)
(341 213)
(67 1)
(59 296)
(100 54)
(326 89)
(288 326)
(150 345)
(344 150)
(346 330)
(16 76)
(108 311)
(311 91)
(102 44)
(79 179)
(253 152)
(88 149)
(87 76)
(37 349)
(228 93)
(139 130)
(40 139)
(334 242)
(49 334)
(191 292)
(228 200)
(294 51)
(142 290)
(276 142)
(13 152)
(142 234)
(354 274)
(107 197)
(311 260)
(240 128)
(107 336)
(249 26)
(303 358)
(305 13)
(274 305)
(359 308)
(185 136)
(114 112)
(52 346)
(346 34)
(360 242)
(199 222)
(97 266)
(90 359)
(86 362)
(86 365)
(326 366)
(327 16)
(256 230)
(249 177)
(236 126)
(126 136)
(211 367)
(30 292)
(56 32)
(14 252)
(305 369)
(372 208)
(23 81)
(105 106)
(121 122)
(134 83)
(143 144)
(155 153)
(157 156)
(131 134)
(195 196)
(203 204)
(196 192)
(144 235)
(243 121)
(246 247)
(235 254)
(255 256)
(268 269)
(271 270)
(277 275)
(279 278)
(282 280)
(285 284)
(286 287)
(293 282)
(280 279)
(300 23)
(39 301)
(304 195)
(306 307)
(227 309)
(313 251)
(122 119)
(314 203)
(224 316)
(317 318)
(320 319)
(81 324)
(287 325)
(321 328)
(329 322)
(332 331)
(335 333)
(297 329)
(316 243)
(336 306)
(333 337)
(338 155)
(106 339)
(340 255)
(318 157)
(263 268)
(324 341)
(269 342)
(343 285)
(119 314)
(345 344)
(55 293)
(328 317)
(325 347)
(156 297)
(348 313)
(349 39)
(351 350)
(339 352)
(278 299)
(175 304)
(353 300)
(153 335)
(302 354)
(355 273)
(356 263)
(357 295)
(358 271)
(319 321)
(342 343)
(331 359)
(352 336)
(337 360)
(267 353)
(295 338)
(360 267)
(341 227)
(251 361)
(359 357)
(362 358)
(323 363)
(364 143)
(365 362)
(270 332)
(366 365)
(347 366)
(322 286)
(83 105)
(247 320)
(273 340)
(363 224)
(367 323)
(307 348)
(361 367)
(192 356)
(309 175)
(284 55)
(299 349)
(204 355)
(301 351)
(350 264)
(264 368)
(354 369)
(368 302)
(369 370)
(344 277)
(371 131)
(373 372)
(370 373)
(372 345)
(275 364)
(256 246)
(254 371)
)

// concaveStart mixedStart nonFeatureStart
0 0 374
// internalStart flatStart openStart multipleStart
24 54 883 1001
// normals

628
(
(0.611604 -0.0993298 -0.784904)
(0.611941 -0.100263 -0.784523)
(0.612013 -0.100096 -0.784488)
(0.612173 -0.100261 -0.784342)
(0.611251 -0.100896 -0.78498)
(0.61087 -0.100991 -0.785264)
(0.613443 -0.100285 -0.783346)
(0.612127 -0.100207 -0.784385)
(0.611546 -0.100612 -0.784786)
(0.61194 -0.100173 -0.784535)
(0.61146 -0.101524 -0.784736)
(0.612316 -0.100106 -0.78425)
(0.611857 -0.10035 -0.784577)
(0.612153 -0.100059 -0.784383)
(0.612702 -0.100551 -0.783892)
(0.61187 -0.100456 -0.784553)
(0.612655 -0.0997693 -0.784028)
(0.612318 -0.100631 -0.784181)
(0.612461 -0.100033 -0.784146)
(0.61211 -0.0991121 -0.784537)
(0.611296 -0.102499 -0.784736)
(0.61255 -0.0991293 -0.784192)
(0.611549 -0.0995903 -0.784913)
(0.612565 -0.0992281 -0.784167)
(0.612681 -0.100922 -0.78386)
(0.612033 -0.100537 -0.784415)
(0.612074 -0.0995891 -0.784504)
(0.611415 -0.0996972 -0.785004)
(0.611997 -0.100165 -0.784491)
(0.611603 -0.0999588 -0.784825)
(0.611961 -0.100204 -0.784514)
(0.611929 -0.10034 -0.784522)
(0.61208 -0.100465 -0.784388)
(0.611924 -0.100312 -0.78453)
(0.612039 -0.0994178 -0.784553)
(0.611343 -0.100084 -0.785011)
(0.611722 -0.100399 -0.784676)
(0.611417 -0.0999549 -0.78497)
(0.611032 -0.099779 -0.785293)
(0.611528 -0.099938 -0.784886)
(0.611999 -0.0996082 -0.78456)
(0.613596 -0.101083 -0.783123)
(0.6129 -0.0998644 -0.783824)
(0.611921 -0.100247 -0.78454)
(0.612035 -0.100293 -0.784445)
(0.612699 -0.0983854 -0.784168)
(0.610971 -0.10107 -0.785175)
(0.612239 -0.100307 -0.784285)
(0.612122 -0.100197 -0.78439)
(0.610791 -0.102334 -0.785151)
(0.61249 -0.101634 -0.783918)
(0.612488 -0.0999953 -0.784129)
(0.611492 -0.10096 -0.784783)
(0.611474 -0.101331 -0.78475)
(0.612053 -0.100555 -0.784398)
(0.6122 -0.0995704 -0.784408)
(0.611394 -0.100687 -0.784894)
(0.611937 -0.0995335 -0.784619)
(0.612594 -0.099444 -0.784117)
(0.610303 -0.100308 -0.785792)
(0.61192 -0.100459 -0.784514)
(0.612674 -0.101207 -0.783829)
(0.613497 -0.0994373 -0.783411)
(0.611871 -0.0999223 -0.78462)
(0.611095 -0.0999486 -0.785222)
(0.611252 -0.101097 -0.784952)
(0.61198 -0.101079 -0.784387)
(0.611082 -0.101372 -0.78505)
(0.612669 -0.100744 -0.783892)
(0.611915 -0.100191 -0.784552)
(0.612138 -0.100772 -0.784303)
(0.611691 -0.0993365 -0.784835)
(0.611894 -0.101046 -0.784459)
(0.613149 -0.0990528 -0.783733)
(0.612966 -0.0989516 -0.783888)
(0.612526 -0.100234 -0.784069)
(0.611899 -0.100708 -0.784499)
(0.611841 -0.100618 -0.784555)
(0.611309 -0.0996009 -0.7851)
(0.610699 -0.100713 -0.785432)
(0.612044 -0.101316 -0.784307)
(0.612477 -0.100668 -0.784052)
(0.612112 -0.1003 -0.784384)
(0.612619 -0.100668 -0.783941)
(0.61154 -0.100652 -0.784786)
(0.611942 -0.10021 -0.784529)
(0.611027 -0.100635 -0.785187)
(0.612068 -0.0999862 -0.784458)
(0.611384 -0.0997148 -0.785027)
(0.611774 -0.0997565 -0.784717)
(0.612549 -0.0994038 -0.784157)
(0.612988 -0.0994026 -0.783814)
(0.611827 -0.0999909 -0.784646)
(0.611706 -0.100187 -0.784716)
(0.611968 -0.10086 -0.784425)
(0.611909 -0.100352 -0.784536)
(0.612125 -0.100276 -0.784377)
(0.611833 -0.100265 -0.784606)
(0.612113 -0.100304 -0.784383)
(0.612478 -0.0989892 -0.784265)
(0.611753 -0.0993218 -0.784789)
(0.611428 -0.100586 -0.784881)
(0.612785 -0.101168 -0.783747)
(0.611933 -0.100179 -0.784539)
(0.610254 -0.0999652 -0.785873)
(0.610149 -0.100089 -0.785939)
(0.613009 -0.10044 -0.783666)
(0.611787 -0.100698 -0.784587)
(0.611572 -0.100629 -0.784764)
(0.610958 -0.101443 -0.785136)
(0.611784 -0.0992765 -0.784771)
(0.611591 -0.100987 -0.784703)
(0.612581 -0.0991839 -0.78416)
(0.612196 -0.101608 -0.784151)
(0.612219 -0.099078 -0.784456)
(0.612439 -0.100016 -0.784166)
(0.612008 -0.100326 -0.784462)
(0.610856 -0.100402 -0.78535)
(0.611648 -0.100066 -0.784776)
(0.61209 -0.0998763 -0.784455)
(0.611931 -0.0995865 -0.784616)
(0.61197 -0.0995918 -0.784586)
(0.611627 -0.0999948 -0.784801)
(0.612241 -0.100113 -0.784307)
(0.611799 -0.10064 -0.784585)
(0.612492 -0.0999957 -0.784126)
(0.612516 -0.0998683 -0.784124)
(0.612245 -0.100179 -0.784296)
(0.611969 -0.099407 -0.784609)
(0.612004 -0.0993977 -0.784583)
(0.611724 -0.09995 -0.784732)
(0.612225 -0.100152 -0.784315)
(0.612227 -0.100152 -0.784314)
(0.611355 -0.10033 -0.784971)
(0.611548 -0.100774 -0.784764)
(0.611917 -0.100655 -0.784491)
(0.611883 -0.100675 -0.784515)
(0.61195 -0.100216 -0.784522)
(0.612035 -0.0994097 -0.784558)
(0.612019 -0.1003 -0.784457)
(0.611985 -0.100231 -0.784493)
(0.611956 -0.100347 -0.7845)
(0.612694 -0.0992869 -0.784059)
(0.612205 -0.100368 -0.784303)
(0.611008 -0.100507 -0.785218)
(0.611476 -0.100419 -0.784865)
(0.611638 -0.100043 -0.784787)
(0.611898 -0.100275 -0.784554)
(0.612651 -0.100695 -0.783913)
(0.612797 -0.099951 -0.783894)
(0.611792 -0.100883 -0.784559)
(0.611877 -0.100097 -0.784594)
(0.61214 -0.100056 -0.784394)
(0.611802 -0.100356 -0.784619)
(0.611623 -0.100871 -0.784692)
(0.61173 -0.0994724 -0.784788)
(0.611914 -0.101343 -0.784404)
(0.611415 -0.100588 -0.784891)
(0.611527 -0.10079 -0.784778)
(0.612694 -0.100554 -0.783898)
(0.612294 -0.100901 -0.784165)
(0.611553 -0.100935 -0.784739)
(0.611893 -0.100022 -0.784591)
(0.612367 -0.100474 -0.784163)
(0.611393 -0.100413 -0.78493)
(0.611603 -0.100246 -0.784789)
(0.611784 -0.100175 -0.784656)
(0.612456 -0.100603 -0.784077)
(0.611566 -0.0994156 -0.784922)
(0.611141 -0.100255 -0.785147)
(0.611281 -0.10043 -0.785015)
(0.611414 -0.100587 -0.784892)
(0.611439 -0.101062 -0.784812)
(0.612413 -0.0998923 -0.784201)
(0.611392 -0.0998017 -0.785009)
(0.612431 -0.100624 -0.784094)
(0.611421 -0.100618 -0.784883)
(0.612094 -0.100929 -0.784318)
(0.612347 -0.101204 -0.784085)
(0.612548 -0.100232 -0.784052)
(0.612582 -0.100326 -0.784014)
(0.611374 -0.100022 -0.784995)
(0.612154 -0.0993198 -0.784476)
(0.612282 -0.0995321 -0.784349)
(0.612189 -0.100154 -0.784343)
(0.611559 -0.100478 -0.784793)
(0.611394 -0.100735 -0.784888)
(0.611231 -0.100508 -0.785045)
(0.611737 -0.100933 -0.784596)
(0.612033 -0.101439 -0.784299)
(0.612378 -0.0994982 -0.784279)
(0.61196 -0.0993786 -0.78462)
(0.612103 -0.1014 -0.78425)
(0.612071 -0.100099 -0.784442)
(0.611815 -0.099883 -0.784669)
(0.612287 -0.100388 -0.784237)
(0.612222 -0.0998137 -0.784361)
(0.612273 -0.100325 -0.784255)
(0.611855 -0.0992198 -0.784722)
(0.612419 -0.100086 -0.784172)
(0.612211 -0.0995609 -0.784401)
(0.611905 -0.0997833 -0.784612)
(0.612328 -0.100593 -0.784179)
(0.612418 -0.100161 -0.784163)
(0.611533 -0.101088 -0.784735)
(0.611444 -0.10072 -0.784852)
(0.612234 -0.100355 -0.784282)
(0.612433 -0.100406 -0.78412)
(0.61233 -0.100239 -0.784222)
(0.612045 -0.100563 -0.784403)
(0.611567 -0.0999944 -0.784848)
(0.612173 -0.0994122 -0.78445)
(0.612129 -0.100642 -0.784327)
(0.611154 -0.0998497 -0.785188)
(0.611944 -0.100241 -0.784523)
(0.611887 -0.100398 -0.784547)
(0.612029 -0.10027 -0.784453)
(0.611611 -0.0996823 -0.784854)
(0.611869 -0.100498 -0.784549)
(0.612081 -0.100263 -0.784413)
(0.611446 -0.0998484 -0.784961)
(0.611683 -0.0997454 -0.784789)
(0.611632 -0.101 -0.784669)
(0.611932 -0.0995602 -0.784619)
(0.612038 -0.0995624 -0.784536)
(0.611701 -0.100311 -0.784703)
(0.612107 -0.0996335 -0.784473)
(0.61176 -0.100139 -0.784679)
(0.612468 -0.100648 -0.784062)
(0.611787 -0.100027 -0.784673)
(0.611488 -0.100416 -0.784856)
(0.612461 -0.100139 -0.784132)
(0.61218 -0.0995035 -0.784432)
(0.611277 -0.0999895 -0.785075)
(0.611976 -0.100298 -0.784491)
(0.611839 -0.100275 -0.784601)
(0.612243 -0.100606 -0.784243)
(0.612319 -0.100376 -0.784213)
(0.612109 -0.100669 -0.784339)
(0.612456 -0.100591 -0.784078)
(0.611381 -0.0999056 -0.785004)
(0.611425 -0.10027 -0.784924)
(0.611419 -0.100282 -0.784927)
(0.612088 -0.100827 -0.784335)
(0.611838 -0.100683 -0.784549)
(0.612358 -0.100773 -0.784132)
(0.611977 -0.100216 -0.784501)
(0.61198 -0.100187 -0.784502)
(0.612031 -0.100247 -0.784454)
(0.611837 -0.100339 -0.784594)
(0.611924 -0.0994538 -0.784639)
(0.61233 -0.0996698 -0.784295)
(0.61189 -0.0998081 -0.78462)
(0.611932 -0.10039 -0.784513)
(0.612021 -0.100232 -0.784464)
(0.611602 -0.0997407 -0.784853)
(0.611904 -0.100818 -0.784481)
(0.61147 -0.100354 -0.784878)
(0.612046 -0.100295 -0.784436)
(0.610976 -0.101018 -0.785178)
(0.611453 -0.100136 -0.784919)
(0.611933 -0.100221 -0.784534)
(0.612405 -0.100693 -0.784105)
(0.611752 -0.100458 -0.784645)
(0.612531 -0.0995745 -0.78415)
(0.611959 -0.0999949 -0.784542)
(0.612221 -0.101088 -0.784198)
(0.612043 -0.101183 -0.784325)
(0.612161 -0.0993634 -0.784466)
(0.611702 -0.100649 -0.784659)
(0.611589 -0.100172 -0.784808)
(0.611858 -0.100428 -0.784566)
(0.611794 -0.100095 -0.784659)
(0.611646 -0.100687 -0.784698)
(0.611346 -0.100501 -0.784956)
(0.612431 -0.0997585 -0.784204)
(0.612378 -0.100587 -0.78414)
(0.612216 -0.0996692 -0.784383)
(0.611623 -0.100408 -0.784752)
(0.61163 -0.100396 -0.784748)
(0.611708 -0.100813 -0.784634)
(0.61165 -0.100834 -0.784677)
(0.612161 -0.100779 -0.784284)
(0.611486 -0.100388 -0.784861)
(0.611571 -0.0990129 -0.78497)
(0.610607 -0.100235 -0.785565)
(0.612738 -0.099821 -0.783957)
(0.610929 -0.100229 -0.785315)
(0.612132 -0.100532 -0.784339)
(0.612619 -0.101253 -0.783866)
(0.611379 -0.101676 -0.784779)
(0.612629 -0.099919 -0.784029)
(0.612391 -0.0997705 -0.784234)
(0.612134 -0.100045 -0.7844)
(0.611841 -0.100781 -0.784534)
(0.612263 -0.0999975 -0.784305)
(0.611689 -0.100747 -0.784657)
(0.612032 -0.100849 -0.784376)
(0.611606 -0.100036 -0.784813)
(0.611874 -0.100334 -0.784566)
(0.611897 -0.100276 -0.784555)
(0.612061 -0.10029 -0.784425)
(0.611252 -0.100545 -0.785024)
(0.611414 -0.100711 -0.784876)
(0.611342 -0.100132 -0.785006)