/*--------------------------------*- C++ -*----------------------------------*\
  =========                 |
  \\      /  F ield         | OpenFOAM: The Open Source CFD Toolbox
   \\    /   O peration     | Website:  https://openfoam.org
    \\  /    A nd           | Version:  6
     \\/     M anipulation  |
\*---------------------------------------------------------------------------*/
FoamFile
{
    version     2.0;
    format      ascii;
    class       extendedFeatureEdgeMesh;
    location    "constant/extendedFeatureEdgeMesh";
    object      outlet1.extendedFeatureEdgeMesh;
}
// * * * * * * * * * * * * * * * * * * * * * * * * * * * * * * * * * * * * * //

// points

99
(
(-18.8269 178.584 -64.5533)
(-18.8783 178.763 -64.6009)
(-19.9486 174.939 -64.3846)
(-19.7967 175.108 -64.3555)
(-19.1193 176.157 -64.2731)
(-19.0279 176.365 -64.2725)
(-20.0766 180.464 -65.3158)
(-20.2424 180.581 -65.3959)
(-20.4122 180.684 -65.4751)
(-20.5872 180.777 -65.5545)
(-20.2724 174.626 -64.4541)
(-20.1144 174.771 -64.4189)
(-21.087 180.964 -65.7691)
(-21.28 181.01 -65.8477)
(-21.4804 181.043 -65.9271)
(-21.7031 181.061 -66.0123)
(-20.9164 180.912 -65.6977)
(-20.4355 174.492 -64.4929)
(-25.356 176.902 -66.6966)
(-25.3221 176.599 -66.6355)
(-19.6395 175.303 -64.3286)
(-19.4888 175.512 -64.3064)
(-25.1234 175.802 -66.4345)
(-25.0277 175.563 -66.3611)
(-25.273 176.324 -66.5734)
(-25.207 176.059 -66.5067)
(-22.4317 181.013 -66.2739)
(-22.6919 180.958 -66.3612)
(-20.7499 180.849 -65.6262)
(-22.9485 180.883 -66.4439)
(-23.1819 180.796 -66.5162)
(-19.3428 175.741 -64.2891)
(-19.2224 175.956 -64.2789)
(-24.8758 179.301 -66.903)
(-24.9738 179.112 -66.9089)
(-21.5195 173.913 -64.8008)
(-21.3451 173.972 -64.7458)
(-21.8751 173.83 -64.9189)
(-21.6961 173.866 -64.8585)
(-22.2353 173.793 -65.0461)
(-22.0547 173.806 -64.9814)
(-22.5948 173.8 -65.1801)
(-22.4152 173.791 -65.1123)
(-23.3947 180.699 -66.5794)
(-23.5896 180.597 -66.635)
(-23.1224 173.892 -65.3896)
(-22.9489 173.85 -65.319)
(-25.2803 178.184 -66.8738)
(-25.3276 177.901 -66.8458)
(-24.5551 179.777 -66.8606)
(-24.6711 179.625 -66.8791)
(-21.9361 181.064 -66.0988)
(-23.2932 173.943 -65.461)
(-23.6235 174.076 -65.6043)
(-23.4602 174.004 -65.5325)
(-23.9341 174.25 -65.7469)
(-23.7814 174.158 -65.6757)
(-24.9193 175.343 -66.2857)
(-24.7875 175.118 -66.2011)
(-24.2186 174.467 -65.8867)
(-24.0795 174.353 -65.8172)
(-24.6499 174.924 -66.1192)
(-23.7902 180.473 -66.6894)
(-23.9797 180.338 -66.7378)
(-19.9008 180.324 -65.2285)
(-24.2996 180.059 -66.8113)
(-24.4314 179.922 -66.8381)
(-25.3706 177.242 -66.7563)
(-25.2193 178.45 -66.8937)
(-24.5069 174.749 -66.0384)
(-19.5607 179.986 -65.0487)
(-19.7268 180.164 -65.1385)
(-20.9702 174.142 -64.6346)
(-20.7867 174.248 -64.5838)
(-24.145 180.202 -66.7771)
(-22.1886 181.047 -66.1894)
(-19.2491 179.564 -64.8661)
(-19.3983 179.784 -64.9564)
(-18.9455 176.576 -64.2758)
(-18.8705 176.809 -64.2854)
(-18.8097 177.039 -64.2998)
(-18.7673 177.252 -64.3182)
(-18.9462 178.957 -64.6571)
(-19.0259 179.15 -64.7173)
(-18.7853 178.402 -64.5088)
(-18.7376 177.462 -64.3408)
(-18.7225 177.652 -64.3657)
(-18.7537 178.217 -64.4676)
(-18.7216 177.842 -64.3956)
(-18.7326 178.031 -64.4299)
(-24.7778 179.466 -66.8932)
(-20.6144 174.36 -64.538)
(-19.1277 179.355 -64.7877)
(-22.7726 173.82 -65.2489)
(-21.1557 174.051 -64.6884)
(-24.3654 174.601 -65.9625)
(-25.0629 178.913 -66.91)
(-25.1461 178.688 -66.9048)
(-25.3595 177.587 -66.8075)
)

// edges

99
(
(0 1)
(2 3)
(4 5)
(6 7)
(8 9)
(10 11)
(12 13)
(14 15)
(16 12)
(17 10)
(18 19)
(20 21)
(22 23)
(24 25)
(26 27)
(28 16)
(29 30)
(31 32)
(11 2)
(33 34)
(35 36)
(37 38)
(39 40)
(41 42)
(43 44)
(45 46)
(47 48)
(49 50)
(15 51)
(52 45)
(53 54)
(55 56)
(57 58)
(59 60)
(58 61)
(54 52)
(7 8)
(60 55)
(62 63)
(21 31)
(32 4)
(64 6)
(3 20)
(65 66)
(67 18)
(19 24)
(68 47)
(23 57)
(61 69)
(70 71)
(72 73)
(63 74)
(75 26)
(44 62)
(13 14)
(74 65)
(76 77)
(78 79)
(80 81)
(82 83)
(1 82)
(84 0)
(85 86)
(87 84)
(88 89)
(90 33)
(91 17)
(40 37)
(86 88)
(89 87)
(81 85)
(79 80)
(83 92)
(5 78)
(92 76)
(77 70)
(93 41)
(71 64)
(9 28)
(51 75)
(42 39)
(27 29)
(66 49)
(50 90)
(73 91)
(94 72)
(46 93)
(56 53)
(95 59)
(69 95)
(96 97)
(34 96)
(97 68)
(25 22)
(36 94)
(98 67)
(48 98)
(38 35)
(30 43)
)

// concaveStart mixedStart nonFeatureStart
0 0 0
// internalStart flatStart openStart multipleStart
0 0 0 99
// normals

99
(
(-0.342802 0.148243 0.927637)
(-0.342954 0.148547 0.927532)
(-0.342324 0.147731 0.927895)
(-0.343418 0.148227 0.927412)
(-0.342177 0.148305 0.927858)
(-0.343194 0.148825 0.927399)
(-0.34251 0.148304 0.927735)
(-0.342842 0.148586 0.927567)
(-0.342982 0.148296 0.927562)
(-0.342725 0.148587 0.927611)
(-0.342401 0.148776 0.9277)
(-0.342605 0.148492 0.92767)
(-0.342228 0.147946 0.927897)
(-0.342514 0.14822 0.927747)
(-0.342639 0.148643 0.927634)
(-0.342428 0.148031 0.927809)
(-0.342628 0.148302 0.927692)
(-0.343122 0.148144 0.927535)
(-0.342748 0.148874 0.927556)
(-0.342837 0.148831 0.92753)
(-0.342839 0.148732 0.927545)
(-0.342904 0.148794 0.927511)
(-0.342961 0.148076 0.927605)
(-0.342786 0.148088 0.927668)
(-0.342243 0.148146 0.927859)
(-0.341472 0.149323 0.927954)
(-0.342674 0.149044 0.927556)
(-0.342457 0.148483 0.927726)
(-0.342496 0.148689 0.927679)
(-0.343299 0.148587 0.927398)
(-0.342651 0.147987 0.927734)
(-0.34296 0.148642 0.927515)
(-0.342426 0.148234 0.927778)
(-0.342606 0.147632 0.927807)
(-0.342739 0.148517 0.927617)
(-0.342916 0.148452 0.927562)
(-0.342583 0.148536 0.927671)
(-0.34306 0.148713 0.927466)
(-0.34269 0.148442 0.927647)
(-0.342627 0.148375 0.927681)
(-0.342415 0.148872 0.927679)
(-0.342547 0.148378 0.92771)
(-0.342786 0.148374 0.927622)
(-0.342517 0.148052 0.927773)
(-0.342753 0.148166 0.927668)
(-0.342546 0.148326 0.927719)
(-0.343053 0.148061 0.927574)
(-0.342519 0.149148 0.927597)
(-0.342502 0.148478 0.92771)
(-0.342893 0.148 0.927642)
(-0.342636 0.148608 0.92764)
(-0.34253 0.148241 0.927738)
(-0.343147 0.148312 0.927499)
(-0.343056 0.148067 0.927572)
(-0.342992 0.148676 0.927498)
(-0.34239 0.148268 0.927786)
(-0.34274 0.148322 0.927648)
(-0.342623 0.148496 0.927663)
(-0.342766 0.148376 0.927629)
(-0.342331 0.148064 0.92784)
(-0.342857 0.148693 0.927545)
(-0.342731 0.148475 0.927626)
(-0.343035 0.14883 0.927457)
(-0.342144 0.148198 0.927887)
(-0.342904 0.148382 0.927577)
(-0.342867 0.148564 0.927562)
(-0.343198 0.148208 0.927496)
(-0.342678 0.148755 0.927601)
(-0.343409 0.147585 0.927518)
(-0.342941 0.149071 0.927453)
(-0.34276 0.148295 0.927645)
(-0.342653 0.148647 0.927628)
(-0.342843 0.148287 0.927615)
(-0.342625 0.14833 0.927689)
(-0.342842 0.148793 0.927534)
(-0.342743 0.148324 0.927646)
(-0.342396 0.14793 0.927837)
(-0.343066 0.14864 0.927476)
(-0.343222 0.148058 0.927511)
(-0.34282 0.148256 0.927628)
(-0.342987 0.148059 0.927598)
(-0.342383 0.148349 0.927775)
(-0.342519 0.148193 0.92775)
(-0.343208 0.148026 0.927522)
(-0.342925 0.148237 0.927593)
(-0.342218 0.149098 0.927716)
(-0.343366 0.148948 0.927315)
(-0.34231 0.148626 0.927758)
(-0.343186 0.148635 0.927432)
(-0.342456 0.148354 0.927747)
(-0.342902 0.148253 0.927599)
(-0.342817 0.148332 0.927617)
(-0.342884 0.148717 0.927531)
(-0.34252 0.149159 0.927594)
(-0.343104 0.148777 0.92744)
(-0.342769 0.148687 0.927578)
(-0.342375 0.147957 0.927841)
(-0.342698 0.148915 0.927568)
(-0.342942 0.147933 0.927635)
)

// normal volume types

99
(
0
0
0
0
0
0
0
0
0
0
0
0
0
0
0
0
0
0
0
0
0
0
0
0
0
0
0
0
0
0
0
0
0
0
0
0
0
0
0
0
0
0
0
0
0
0
0
0
0
0
0
0
0
0
0
0
0
0
0
0
0
0
0
0
0
0
0
0
0
0
0
0
0
0
0
0
0
0
0
0
0
0
0
0
0
0
0
0
0
0
0
0
0
0
0
0
0
0
0
)

// normalDirections

99
(
1(1)
1(1)
1(1)
1(1)
1(1)
1(1)
1(1)
1(1)
1(1)
1(1)
1(1)
1(1)
1(1)
1(1)
1(1)
1(1)
1(1)
1(1)
1(1)
1(1)
1(1)
1(1)
1(1)
1(1)
1(1)
1(1)
1(1)
1(1)
1(1)
1(1)
1(1)
1(1)
1(1)
1(1)
1(1)
1(1)
1(1)
1(1)
1(1)
1(1)
1(1)
1(1)
1(1)
1(1)
1(1)
1(1)
1(1)
1(1)
1(1)
1(1)
1(1)
1(1)
1(1)
1(1)
1(1)
1(1)
1(1)
1(1)
1(1)
1(1)
1(1)
1(1)
1(1)
1(1)
1(1)
1(1)
1(1)
1(1)
1(1)
1(1)
1(1)
1(1)
1(1)
1(1)
1(1)
1(1)
1(1)
1(1)
1(1)
1(1)
1(1)
1(1)
1(1)
1(1)
1(1)
1(1)
1(1)
1(1)
1(1)
1(1)
1(1)
1(1)
1(1)
1(1)
1(1)
1(1)
1(1)
1(1)
1(1)
)

// edgeNormals

99
(
1(0)
1(1)
1(2)
1(3)
1(4)
1(5)
1(6)
1(7)
1(8)
1(9)
1(10)
1(11)
1(12)
1(13)
1(14)
1(15)
1(16)
1(17)
1(18)
1(19)
1(20)
1(21)
1(22)
1(23)
1(24)
1(25)
1(26)
1(27)
1(28)
1(29)
1(30)
1(31)
1(32)
1(33)
1(34)
1(35)
1(36)
1(37)
1(38)
1(39)
1(40)
1(41)
1(42)
1(43)
1(44)
1(45)
1(46)
1(47)
1(48)
1(49)
1(50)
1(51)
1(52)
1(53)
1(54)
1(55)
1(56)
1(57)
1(58)
1(59)
1(60)
1(61)
1(62)
1(63)
1(64)
1(65)
1(66)
1(67)
1(68)
1(69)
1(70)
1(71)
1(72)
1(73)
1(74)
1(75)
1(76)
1(77)
1(78)
1(79)
1(80)
1(81)
1(82)
1(83)
1(84)
1(85)
1(86)
1(87)
1(88)
1(89)
1(90)
1(91)
1(92)
1(93)
1(94)
1(95)
1(96)
1(97)
1(98)
)

// featurePointNormals
0()
// featurePointEdges
0()
// regionEdges

99
(
0
1
2
3
4
5
6
7
8
9
10
11
12
13
14
15
16
17
18
19
20
21
22
23
24
25
26
27
28
29
30
31
32
33
34
35
36
37
38
39
40
41
42
43
44
45
46
47
48
49
50
51
52
53
54
55
56
57
58
59
60
61
62
63
64
65
66
67
68
69
70
71
72
73
74
75
76
77
78
79
80
81
82
83
84
85
86
87
88
89
90
91
92
93
94
95
96
97
98
)



// ************************************************************************* //
