/*--------------------------------*- C++ -*----------------------------------*\
  =========                 |
  \\      /  F ield         | OpenFOAM: The Open Source CFD Toolbox
   \\    /   O peration     | Website:  https://openfoam.org
    \\  /    A nd           | Version:  6
     \\/     M anipulation  |
\*---------------------------------------------------------------------------*/
FoamFile
{
    version     2.0;
    format      ascii;
    class       extendedFeatureEdgeMesh;
    location    "constant/extendedFeatureEdgeMesh";
    object      outlet1.extendedFeatureEdgeMesh;
}
// * * * * * * * * * * * * * * * * * * * * * * * * * * * * * * * * * * * * * //

// points

188
(
(-18.9634 178.004 -64.5109)
(-19.2229 178.697 -64.7177)
(-19.7588 177.836 -64.7779)
(-23.0551 174.865 -65.5205)
(-22.6939 175.63 -65.5095)
(-23.1895 175.464 -65.666)
(-24.1143 179.945 -66.7247)
(-24.4909 179.274 -66.7564)
(-23.5863 179.503 -66.4588)
(-23.9377 178.836 -66.4819)
(-23.713 176.604 -66.0418)
(-23.6887 177.253 -66.1367)
(-24.2495 176.902 -66.2877)
(-24.2054 177.749 -66.4069)
(-24.9312 177.283 -66.6005)
(-22.1213 179.382 -65.8982)
(-21.9456 179.826 -65.9043)
(-22.4134 179.947 -66.0965)
(-19.9833 178.545 -64.9743)
(-19.8903 179.027 -65.0171)
(-20.4031 178.954 -65.1948)
(-20.1813 179.48 -65.1971)
(-20.8102 176.027 -64.877)
(-21.4564 176.2 -65.1435)
(-21.1876 175.285 -64.8977)
(-23.3112 178.702 -66.2291)
(-22.8586 178.046 -65.9568)
(-22.4933 178.73 -65.9314)
(-20.4018 175.636 -64.6635)
(-23.9172 178.357 -66.3978)
(-23.5663 177.941 -66.2015)
(-20.2382 176.331 -64.7142)
(-19.1793 177.193 -64.461)
(-20.7483 179.373 -65.3895)
(-21.0749 178.92 -65.4375)
(-20.5842 178.17 -65.1363)
(-21.4236 179.591 -65.6738)
(-22.863 179.391 -66.1737)
(-20.6364 179.965 -65.4428)
(-18.8783 178.763 -64.6009)
(-18.8269 178.584 -64.5533)
(-19.5908 179.463 -64.9762)
(-24.8947 176.469 -66.4569)
(-24.1765 176.137 -66.1383)
(-23.3609 176.087 -65.829)
(-23.7231 175.37 -65.8482)
(-23.182 176.894 -65.892)
(-21.8015 180.216 -65.9134)
(-21.2559 174.409 -64.7829)
(-20.6317 174.773 -64.6104)
(-19.9486 174.939 -64.3846)
(-19.7967 175.108 -64.3555)
(-20.1284 175.059 -64.4703)
(-19.3746 176.12 -64.3614)
(-19.1193 176.157 -64.2731)
(-19.0279 176.365 -64.2725)
(-20.0766 180.464 -65.3158)
(-20.2424 180.581 -65.3959)
(-20.0334 180.056 -65.2346)
(-20.4122 180.684 -65.4751)
(-20.5872 180.777 -65.5545)
(-20.5356 180.46 -65.4848)
(-20.7499 180.849 -65.6262)
(-21.1033 180.516 -65.7035)
(-20.2724 174.626 -64.4541)
(-20.1144 174.771 -64.4189)
(-22.4381 174.979 -65.3108)
(-22.4448 174.166 -65.1831)
(-23.1744 177.517 -65.9889)
(-21.7711 178.832 -65.6808)
(-22.5294 177.28 -65.7127)
(-21.9068 174.701 -65.07)
(-21.817 174.111 -64.9425)
(-20.019 177.003 -64.7407)
(-20.4632 177.466 -64.979)
(-21.087 180.964 -65.7691)
(-21.28 181.01 -65.8477)
(-23.7545 174.519 -65.7236)
(-23.6235 174.076 -65.6043)
(-23.2109 174.17 -65.4669)
(-21.9719 176.719 -65.417)
(-22.6488 176.496 -65.6313)
(-21.9417 175.455 -65.2035)
(-22.1382 176.119 -65.3824)
(-24.4024 178.454 -66.5925)
(-21.7595 177.444 -65.4545)
(-22.153 178.047 -65.6962)
(-19.8853 176.038 -64.537)
(-20.8261 176.789 -65.0048)
(-21.0777 177.484 -65.2089)
(-21.414 176.957 -65.2489)
(-19.6847 176.558 -64.5461)
(-21.419 178.117 -65.4363)
(-23.0247 179.926 -66.3191)
(-23.5768 180.242 -66.5736)
(-22.2596 180.702 -66.1605)
(-21.6388 180.768 -65.9416)
(-19.7803 175.556 -64.4211)
(-21.4804 181.043 -65.9271)
(-21.7031 181.061 -66.0123)
(-20.9164 180.912 -65.6977)
(-20.4355 174.492 -64.4929)
(-25.3221 176.599 -66.6355)
(-25.356 176.902 -66.6966)
(-21.9361 181.064 -66.0988)
(-19.6395 175.303 -64.3286)
(-19.4888 175.512 -64.3064)
(-24.2636 174.861 -65.9665)
(-24.2186 174.467 -65.8867)
(-25.0277 175.563 -66.3611)
(-24.7769 175.913 -66.3244)
(-25.1234 175.802 -66.4345)
(-24.5482 175.406 -66.1588)
(-20.7867 174.248 -64.5838)
(-21.5195 173.913 -64.8008)
(-25.207 176.059 -66.5067)
(-25.273 176.324 -66.5734)
(-22.4317 181.013 -66.2739)
(-22.6919 180.958 -66.3612)
(-22.9065 180.539 -66.3734)
(-22.9485 180.883 -66.4439)
(-23.1819 180.796 -66.5162)
(-19.3428 175.741 -64.2891)
(-19.2224 175.956 -64.2789)
(-24.8758 179.301 -66.903)
(-24.9738 179.112 -66.9089)
(-21.3451 173.972 -64.7458)
(-24.9179 178.047 -66.7179)
(-21.8751 173.83 -64.9189)
(-21.6961 173.866 -64.8585)
(-22.2353 173.793 -65.0461)
(-22.0547 173.806 -64.9814)
(-22.5948 173.8 -65.1801)
(-22.4152 173.791 -65.1123)
(-23.3947 180.699 -66.5794)
(-23.5896 180.597 -66.635)
(-23.1224 173.892 -65.3896)
(-22.9489 173.85 -65.319)
(-25.2803 178.184 -66.8738)
(-25.3276 177.901 -66.8458)
(-24.5551 179.777 -66.8606)
(-24.6711 179.625 -66.8791)
(-23.2932 173.943 -65.461)
(-23.4602 174.004 -65.5325)
(-23.9341 174.25 -65.7469)
(-23.7814 174.158 -65.6757)
(-24.7875 175.118 -66.2011)
(-24.9193 175.343 -66.2857)
(-24.0795 174.353 -65.8172)
(-24.6499 174.924 -66.1192)
(-23.7902 180.473 -66.6894)
(-23.9797 180.338 -66.7378)
(-24.879 178.692 -66.8067)
(-19.1953 176.565 -64.3663)
(-19.9008 180.324 -65.2285)
(-24.2996 180.059 -66.8113)
(-24.4314 179.922 -66.8381)
(-25.3706 177.242 -66.7563)
(-25.2193 178.45 -66.8937)
(-24.5069 174.749 -66.0384)
(-19.5607 179.986 -65.0487)
(-19.7268 180.164 -65.1385)
(-20.9702 174.142 -64.6346)
(-24.145 180.202 -66.7771)
(-22.1886 181.047 -66.1894)
(-19.2491 179.564 -64.8661)
(-19.3983 179.784 -64.9564)
(-18.8705 176.809 -64.2854)
(-18.9455 176.576 -64.2758)
(-18.8097 177.039 -64.2998)
(-18.7673 177.252 -64.3182)
(-18.9462 178.957 -64.6571)
(-19.0259 179.15 -64.7173)
(-18.7853 178.402 -64.5088)
(-18.7225 177.652 -64.3657)
(-18.7376 177.462 -64.3408)
(-18.7537 178.217 -64.4676)
(-18.7216 177.842 -64.3956)
(-18.7326 178.031 -64.4299)
(-24.7778 179.466 -66.8932)
(-20.6144 174.36 -64.538)
(-19.1277 179.355 -64.7877)
(-22.7726 173.82 -65.2489)
(-21.1557 174.051 -64.6884)
(-24.3654 174.601 -65.9625)
(-25.0629 178.913 -66.91)
(-25.1461 178.688 -66.9048)
(-25.3595 177.587 -66.8075)
)

// edges

462
(
(79 136)
(137 79)
(2 0)
(0 1)
(5 3)
(7 8)
(9 8)
(7 9)
(12 10)
(13 14)
(12 13)
(14 12)
(17 15)
(19 20)
(20 18)
(21 20)
(18 1)
(24 22)
(25 26)
(24 28)
(9 29)
(25 9)
(30 26)
(25 30)
(28 31)
(31 22)
(32 0)
(34 35)
(20 34)
(36 34)
(37 8)
(21 38)
(39 1)
(43 12)
(42 43)
(5 44)
(46 10)
(36 47)
(2 18)
(35 2)
(49 24)
(48 49)
(55 53)
(58 56)
(60 61)
(49 28)
(65 52)
(3 67)
(67 66)
(68 26)
(15 69)
(36 15)
(68 46)
(73 2)
(74 73)
(30 13)
(76 63)
(78 79)
(15 37)
(70 81)
(81 80)
(82 71)
(24 82)
(71 24)
(82 66)
(46 81)
(4 81)
(81 44)
(82 83)
(4 82)
(84 13)
(83 81)
(73 32)
(85 86)
(86 70)
(87 31)
(89 90)
(88 89)
(80 90)
(73 31)
(91 73)
(92 86)
(94 8)
(37 17)
(47 96)
(17 47)
(86 26)
(23 90)
(53 87)
(97 53)
(9 84)
(63 100)
(64 49)
(49 101)
(102 42)
(96 104)
(97 105)
(108 77)
(107 108)
(110 111)
(43 112)
(45 43)
(43 10)
(28 97)
(92 89)
(89 35)
(86 69)
(69 34)
(38 36)
(76 96)
(58 38)
(42 116)
(38 61)
(63 38)
(118 95)
(119 95)
(119 120)
(121 119)
(73 88)
(123 53)
(89 85)
(125 7)
(71 67)
(127 14)
(129 72)
(79 67)
(67 130)
(131 67)
(135 94)
(3 77)
(139 127)
(141 7)
(77 45)
(77 144)
(145 77)
(112 147)
(149 112)
(42 14)
(151 94)
(74 89)
(7 84)
(152 84)
(53 153)
(153 91)
(125 152)
(55 153)
(97 51)
(119 94)
(6 155)
(92 34)
(119 17)
(14 157)
(127 158)
(159 107)
(161 58)
(95 164)
(153 32)
(166 41)
(167 153)
(153 168)
(167 32)
(172 1)
(1 173)
(32 175)
(173 0)
(0 177)
(178 0)
(152 158)
(181 1)
(41 181)
(160 41)
(67 182)
(61 58)
(43 110)
(48 183)
(152 185)
(43 44)
(1 2)
(3 4)
(4 5)
(6 7)
(8 6)
(10 11)
(11 12)
(16 17)
(15 16)
(18 19)
(19 21)
(1 19)
(23 24)
(22 23)
(27 25)
(26 27)
(28 22)
(29 25)
(2 32)
(21 33)
(33 20)
(35 20)
(33 36)
(34 33)
(25 37)
(8 25)
(38 33)
(1 40)
(41 19)
(1 41)
(12 42)
(45 5)
(44 45)
(44 46)
(10 44)
(47 16)
(16 36)
(18 35)
(24 48)
(52 50)
(51 52)
(53 54)
(57 58)
(61 59)
(63 61)
(62 63)
(61 62)
(52 64)
(66 3)
(30 68)
(69 36)
(46 70)
(70 68)
(11 46)
(68 11)
(72 48)
(71 72)
(48 71)
(2 74)
(35 74)
(11 30)
(13 11)
(63 75)
(79 77)
(77 78)
(27 15)
(37 27)
(27 69)
(80 70)
(66 71)
(66 4)
(44 4)
(83 4)
(29 84)
(13 29)
(23 80)
(83 23)
(80 83)
(85 70)
(80 85)
(28 87)
(90 88)
(90 85)
(31 91)
(85 92)
(93 8)
(37 93)
(93 94)
(17 93)
(95 47)
(96 95)
(63 96)
(47 63)
(95 17)
(26 70)
(23 88)
(87 97)
(82 23)
(99 96)
(96 98)
(42 103)
(104 95)
(106 97)
(77 107)
(109 110)
(112 45)
(45 3)
(48 113)
(113 49)
(114 48)
(72 114)
(52 97)
(28 52)
(35 92)
(27 86)
(21 58)
(42 115)
(110 42)
(115 110)
(95 117)
(118 119)
(87 91)
(88 31)
(53 122)
(7 124)
(67 72)
(126 48)
(13 127)
(72 128)
(3 79)
(67 132)
(133 67)
(94 134)
(127 138)
(7 140)
(92 69)
(79 142)
(45 107)
(143 79)
(146 112)
(148 77)
(61 57)
(14 103)
(94 150)
(52 49)
(122 97)
(88 74)
(7 152)
(91 53)
(58 154)
(29 30)
(91 32)
(88 22)
(93 119)
(156 6)
(112 109)
(107 149)
(58 160)
(48 162)
(163 6)
(6 151)
(152 127)
(127 84)
(41 21)
(41 165)
(170 32)
(32 169)
(1 171)
(174 32)
(0 176)
(174 0)
(7 179)
(6 140)
(41 58)
(49 180)
(72 131)
(137 67)
(110 112)
(36 63)
(119 134)
(6 94)
(112 107)
(107 184)
(186 152)
(187 14)
(127 187)
(40 39)
(50 51)
(54 55)
(56 57)
(59 60)
(64 65)
(75 76)
(98 99)
(100 75)
(101 64)
(103 102)
(105 106)
(111 109)
(116 115)
(117 118)
(62 100)
(120 121)
(122 123)
(65 50)
(124 125)
(114 126)
(128 129)
(130 131)
(132 133)
(134 135)
(136 137)
(138 139)
(140 141)
(99 104)
(142 136)
(78 143)
(144 145)
(147 146)
(108 148)
(146 149)
(143 142)
(57 59)
(148 144)
(150 151)
(106 122)
(123 54)
(154 56)
(51 105)
(155 156)
(157 103)
(102 116)
(158 138)
(109 147)
(149 159)
(160 161)
(162 113)
(151 163)
(164 117)
(135 150)
(76 98)
(163 155)
(165 166)
(168 167)
(169 170)
(171 172)
(39 171)
(173 40)
(175 174)
(176 173)
(177 178)
(179 124)
(180 101)
(131 128)
(174 177)
(178 176)
(170 175)
(167 169)
(172 181)
(55 168)
(181 165)
(166 160)
(182 132)
(161 154)
(60 62)
(104 164)
(133 130)
(118 120)
(156 140)
(141 179)
(113 180)
(183 162)
(137 182)
(145 78)
(184 108)
(159 184)
(185 186)
(125 185)
(186 158)
(115 111)
(126 183)
(187 157)
(139 187)
(129 114)
(121 134)
)

// concaveStart mixedStart nonFeatureStart
0 0 188
// internalStart flatStart openStart multipleStart
1 2 363 462
// normals

275
(
(-0.342802 0.148243 0.927637)
(-0.342954 0.148547 0.927532)
(-0.342324 0.147731 0.927895)
(-0.343418 0.148227 0.927412)
(-0.342177 0.148305 0.927858)
(-0.343194 0.148825 0.927399)
(-0.34251 0.148304 0.927735)
(-0.342842 0.148586 0.927567)
(-0.342982 0.148296 0.927562)
(-0.342725 0.148587 0.927611)
(-0.342401 0.148776 0.9277)
(-0.342605 0.148492 0.92767)
(-0.342228 0.147946 0.927897)
(-0.342514 0.14822 0.927747)
(-0.342639 0.148643 0.927634)
(-0.342428 0.148031 0.927809)
(-0.342628 0.148302 0.927692)
(-0.343122 0.148144 0.927535)
(-0.342748 0.148874 0.927556)
(-0.342837 0.148831 0.92753)
(-0.342839 0.148732 0.927545)
(-0.342904 0.148794 0.927511)
(-0.342961 0.148076 0.927605)
(-0.342786 0.148088 0.927668)
(-0.342243 0.148146 0.927859)
(-0.341472 0.149323 0.927954)
(-0.342674 0.149044 0.927556)
(-0.342457 0.148483 0.927726)
(-0.342496 0.148689 0.927679)
(-0.343299 0.148587 0.927398)
(-0.342651 0.147987 0.927734)
(-0.34296 0.148642 0.927515)
(-0.342426 0.148234 0.927778)
(-0.342606 0.147632 0.927807)
(-0.342739 0.148517 0.927617)
(-0.342916 0.148452 0.927562)
(-0.342583 0.148536 0.927671)
(-0.34306 0.148713 0.927466)
(-0.34269 0.148442 0.927647)
(-0.342627 0.148375 0.927681)
(-0.342415 0.148872 0.927679)
(-0.342547 0.148378 0.92771)
(-0.342786 0.148374 0.927622)
(-0.342517 0.148052 0.927773)
(-0.342753 0.148166 0.927668)
(-0.342546 0.148326 0.927719)
(-0.343053 0.148061 0.927574)
(-0.342519 0.149148 0.927597)
(-0.342502 0.148478 0.92771)
(-0.342893 0.148 0.927642)
(-0.342636 0.148608 0.92764)
(-0.34253 0.148241 0.927738)
(-0.343147 0.148312 0.927499)
(-0.343056 0.148067 0.927572)
(-0.342992 0.148676 0.927498)
(-0.34239 0.148268 0.927786)
(-0.34274 0.148322 0.927648)
(-0.342623 0.148496 0.927663)
(-0.342766 0.148376 0.927629)
(-0.342331 0.148064 0.92784)
(-0.342857 0.148693 0.927545)
(-0.342731 0.148475 0.927626)
(-0.343035 0.14883 0.927457)
(-0.342144 0.148198 0.927887)
(-0.342904 0.148382 0.927577)
(-0.342867 0.148564 0.927562)
(-0.343198 0.148208 0.927496)
(-0.342678 0.148755 0.927601)
(-0.343409 0.147585 0.927518)
(-0.342941 0.149071 0.927453)
(-0.34276 0.148295 0.927645)
(-0.342653 0.148647 0.927628)
(-0.342843 0.148287 0.927615)
(-0.342625 0.14833 0.927689)
(-0.342842 0.148793 0.927534)
(-0.342743 0.148324 0.927646)
(-0.342396 0.14793 0.927837)
(-0.343066 0.14864 0.927476)
(-0.343222 0.148058 0.927511)
(-0.34282 0.148256 0.927628)
(-0.342987 0.148059 0.927598)
(-0.342383 0.148349 0.927775)
(-0.342519 0.148193 0.92775)
(-0.343208 0.148026 0.927522)
(-0.342925 0.148237 0.927593)
(-0.342218 0.149098 0.927716)
(-0.343366 0.148948 0.927315)
(-0.34231 0.148626 0.927758)
(-0.343186 0.148635 0.927432)
(-0.342456 0.148354 0.927747)
(-0.342902 0.148253 0.927599)
(-0.342817 0.148332 0.927617)
(-0.342884 0.148717 0.927531)
(-0.34252 0.149159 0.927594)
(-0.343104 0.148777 0.92744)
(-0.342769 0.148687 0.927578)
(-0.342375 0.147957 0.927841)
(-0.342698 0.148915 0.927568)
(-0.342942 0.147933 0.927635)
(-0.34274 0.148464 0.927625)
(-0.34272 0.148319 0.927655)
(-0.342737 0.148465 0.927626)
(-0.342659 0.148448 0.927657)
(-0.342868 0.148385 0.92759)
(-0.342774 0.148559 0.927597)
(-0.342753 0.148445 0.927623)
(-0.342601 0.148362 0.927693)
(-0.342774 0.148417 0.92762)
(-0.342697 0.148477 0.927638)
(-0.342708 0.148458 0.927638)
(-0.342719 0.148395 0.927644)
(-0.342782 0.14851 0.927602)
(-0.342653 0.148395 0.927668)
(-0.342784 0.148275 0.927639)
(-0.34275 0.148369 0.927636)
(-0.342759 0.148363 0.927634)
(-0.342609 0.148481 0.92767)
(-0.342612 0.14852 0.927663)
(-0.342696 0.148384 0.927654)
(-0.342805 0.148601 0.927579)
(-0.342717 0.148499 0.927628)
(-0.34271 0.148444 0.927639)
(-0.342802 0.148484 0.927599)
(-0.342784 0.148474 0.927607)
(-0.342727 0.148586 0.92761)
(-0.342774 0.148549 0.927599)
(-0.342752 0.148384 0.927633)
(-0.342633 0.148228 0.927702)
(-0.342637 0.148227 0.927701)
(-0.342756 0.14833 0.92764)
(-0.342789 0.148554 0.927592)
(-0.342862 0.148385 0.927592)
(-0.34265 0.148341 0.927678)
(-0.342876 0.148415 0.927583)
(-0.342533 0.148273 0.927732)
(-0.342646 0.148374 0.927674)
(-0.34278 0.148273 0.927641)
(-0.342643 0.148751 0.927615)
(-0.342542 0.148673 0.927664)
(-0.342919 0.148442 0.927562)
(-0.342691 0.148323 0.927665)
(-0.342647 0.148554 0.927645)
(-0.34277 0.148309 0.927638)
(-0.342697 0.148385 0.927653)
(-0.342873 0.148431 0.927581)
(-0.342886 0.148403 0.92758)
(-0.342866 0.148366 0.927594)
(-0.342657 0.148441 0.927659)
(-0.342743 0.148396 0.927635)
(-0.342779 0.148476 0.927608)
(-0.342832 0.148321 0.927614)
(-0.342663 0.14844 0.927657)
(-0.342725 0.148438 0.927635)
(-0.342755 0.148362 0.927635)
(-0.342829 0.148293 0.927619)
(-0.342782 0.148197 0.927652)
(-0.342665 0.148292 0.92768)
(-0.342533 0.148332 0.927722)
(-0.342717 0.148528 0.927623)
(-0.342857 0.148391 0.927593)
(-0.342707 0.148529 0.927627)
(-0.342736 0.148318 0.92765)
(-0.342801 0.148388 0.927614)
(-0.342825 0.14837 0.927608)
(-0.342802 0.148389 0.927614)
(-0.342681 0.148465 0.927647)
(-0.34279 0.14846 0.927607)
(-0.34282 0.148511 0.927588)
(-0.342595 0.148445 0.927682)
(-0.342882 0.148445 0.927575)
(-0.342702 0.148339 0.927659)
(-0.342756 0.148585 0.927599)
(-0.342723 0.14821 0.927672)
(-0.342726 0.148468 0.927629)
(-0.342761 0.148332 0.927638)
(-0.342612 0.148493 0.927667)
(-0.3427 0.148503 0.927633)
(-0.342603 0.148455 0.927677)
(-0.342726 0.14838 0.927643)
(-0.342786 0.148374 0.927622)
(-0.342689 0.148526 0.927633)
(-0.342661 0.148288 0.927682)
(-0.342824 0.148418 0.927601)
(-0.342771 0.148401 0.927623)
(-0.342733 0.148324 0.92765)
(-0.342694 0.148324 0.927664)
(-0.34281 0.148473 0.927597)
(-0.342682 0.148521 0.927637)
(-0.342575 0.148497 0.92768)
(-0.342825 0.148407 0.927602)
(-0.342578 0.148336 0.927705)
(-0.34269 0.148213 0.927683)
(-0.342622 0.148264 0.9277)
(-0.342816 0.148277 0.927627)
(-0.342611 0.148392 0.927684)
(-0.342776 0.148331 0.927633)
(-0.342843 0.148376 0.927601)
(-0.34272 0.148356 0.927649)
(-0.342805 0.148407 0.92761)
(-0.342788 0.148356 0.927624)
(-0.34259 0.148326 0.927702)
(-0.342876 0.148415 0.927583)
(-0.34263 0.148494 0.927661)
(-0.342619 0.148512 0.927662)
(-0.342817 0.148503 0.92759)
(-0.342876 0.148466 0.927574)
(-0.342862 0.148442 0.927583)
(-0.342643 0.148382 0.927674)
(-0.342831 0.148474 0.927589)
(-0.34277 0.148299 0.92764)
(-0.342798 0.148626 0.927577)
(-0.342768 0.148356 0.927632)
(-0.34279 0.14839 0.927618)
(-0.342797 0.148462 0.927604)
(-0.342577 0.148225 0.927723)
(-0.342692 0.148666 0.92761)
(-0.342856 0.148291 0.92761)
(-0.342661 0.148731 0.927611)
(-0.342737 0.148263 0.927658)
(-0.342865 0.148329 0.9276)
(-0.342706 0.148284 0.927666)
(-0.342689 0.148438 0.927648)
(-0.342701 0.148417 0.927647)
(-0.342735 0.148217 0.927666)
(-0.34278 0.148418 0.927617)
(-0.342843 0.148379 0.9276)
(-0.342719 0.148371 0.927647)
(-0.342843 0.148599 0.927565)
(-0.342912 0.148329 0.927583)
(-0.342671 0.148294 0.927678)
(-0.342736 0.148464 0.927626)
(-0.342706 0.148492 0.927633)
(-0.342707 0.148492 0.927632)
(-0.342709 0.14852 0.927627)
(-0.342696 0.148451 0.927643)
(-0.342717 0.148362 0.92765)
(-0.342544 0.148346 0.927716)
(-0.34289 0.148506 0.927563)
(-0.342878 0.148028 0.927643)
(-0.342509 0.148612 0.927686)
(-0.342782 0.148376 0.927623)
(-0.342816 0.148459 0.927598)
(-0.342834 0.148459 0.927591)
(-0.342503 0.148475 0.927711)
(-0.342835 0.14827 0.927621)
(-0.342726 0.148306 0.927655)
(-0.34279 0.148414 0.927614)
(-0.342807 0.14838 0.927613)
(-0.342895 0.148383 0.927581)
(-0.342886 0.148602 0.927549)
(-0.34294 0.148371 0.927566)
(-0.342759 0.14826 0.927651)
(-0.342795 0.148363 0.927621)
(-0.34288 0.148279 0.927603)
(-0.342678 0.148379 0.927661)
(-0.342696 0.148608 0.927618)
(-0.34297 0.1483 0.927566)
(-0.342833 0.148325 0.927613)
(-0.342611 0.14862 0.927648)
(-0.342711 0.148473 0.927634)
(-0.342597 0.148456 0.927679)
(-0.342747 0.14842 0.927629)
(-0.342753 0.148425 0.927626)
(-0.342821 0.148419 0.927602)
(-0.342732 0.148352 0.927646)
(-0.342722 0.148382 0.927644)
(-0.342741 0.148345 0.927643)
(-0.342645 0.148323 0.927682)
(-0.34282 0.148721 0.927554)
(-0.342714 0.148382 0.927648)
(-0.34268 0.148475 0.927645)
(-0.342784 0.148373 0.927623)
(-0.34273 0.148335 0.927649)
(-0.342748 0.148397 0.927632)
(-0.342775 0.148435 0.927616)
)

// normal volume types

275
(
0
0
0
0
0
0
0
0
0
0
0
0
0
0
0
0
0
0
0
0
0
0
0
0
0
0
0
0
0
0
0
0
0
0
0
0
0
0
0
0
0
0
0
0
0
0
0
0
0
0
0
0
0
0
0
0
0
0
0
0
0
0
0
0
0
0
0
0
0
0
0
0
0
0
0
0
0
0
0
0
0
0
0
0
0
0
0
0
0
0
0
0
0
0
0
0
0
0
0
0
0
0
0
0
0
0
0
0
0
0
0
0
0
0
0
0
0
0
0
0
0
0
0
0
0
0
0
0
0
0
0
0
0
0
0
0
0
0
0
0
0
0
0
0
0
0
0
0
0
0
0
0
0
0
0
0
0
0
0
0
0
0
0
0
0
0
0
0
0
0
0
0
0
0
0
0
0
0
0
0
0
0
0
0
0
0
0
0
0
0
0
0
0
0
0
0
0
0
0
0
0
0
0
0
0
0
0
0
0
0
0
0
0
0
0
0
0
0
0
0
0
0
0
0
0
0
0
0
0
0
0
0
0
0
0
0
0
0
0
0
0
0
0
0
0
0
0
0
0
0
0
0
0
0
0
0
0
0
0
0
0
0
0
0
0
0
0
0
0
0
0
0
0
0
0
)

// normalDirections

462
(
2(1 -1)
2(1 -1)
2(1 -1)
2(1 -1)
2(1 -1)
2(1 -1)
2(1 -1)
2(1 -1)
2(1 -1)
2(1 -1)
2(1 -1)
2(1 -1)
2(1 -1)
2(1 -1)
2(1 -1)
2(1 -1)
2(1 -1)
2(1 -1)
2(1 -1)
2(1 -1)
2(1 -1)
2(1 -1)
2(1 -1)
2(1 -1)
2(1 -1)
2(1 -1)
2(1 -1)
2(1 -1)
2(1 -1)
2(1 -1)
2(1 -1)
2(1 -1)
2(1 -1)
2(1 -1)
2(1 -1)
2(1 -1)
2(1 -1)
2(1 -1)
2(1 -1)
2(1 -1)
2(1 -1)
2(1 -1)
2(1 -1)
2(1 -1)
2(1 -1)
2(1 -1)
2(1 -1)
2(1 -1)
2(1 -1)
2(1 -1)
2(1 -1)
2(1 -1)
2(1 -1)
2(1 -1)
2(1 -1)
2(1 -1)
2(1 -1)
2(1 -1)
2(1 -1)
2(1 -1)
2(1 -1)
2(1 -1)
2(1 -1)
2(1 -1)
2(1 -1)
2(1 -1)
2(1 -1)
2(1 -1)
2(1 -1)
2(1 -1)
2(1 -1)
2(1 -1)
2(1 -1)
2(1 -1)
2(1 -1)
2(1 -1)
2(1 -1)
2(1 -1)
2(1 -1)
2(1 -1)
2(1 -1)
2(1 -1)
2(1 -1)
2(1 -1)
2(1 -1)
2(1 -1)
2(1 -1)
2(1 -1)
2(1 -1)
2(1 -1)
2(1 -1)
2(1 -1)
2(1 -1)
2(1 -1)
2(1 -1)
2(1 -1)
2(1 -1)
2(1 -1)
2(1 -1)
2(1 -1)
2(1 -1)
2(1 -1)
2(1 -1)
2(1 -1)
2(1 -1)
2(1 -1)
2(1 -1)
2(1 -1)
2(1 -1)
2(1 -1)
2(1 -1)
2(1 -1)
2(1 -1)
2(1 -1)
2(1 -1)
2(1 -1)
2(1 -1)
2(1 -1)
2(1 -1)
2(1 -1)
2(1 -1)
2(1 -1)
2(1 -1)
2(1 -1)
2(1 -1)
2(1 -1)
2(1 -1)
2(1 -1)
2(1 -1)
2(1 -1)
2(1 -1)
2(1 -1)
2(1 -1)
2(1 -1)
2(1 -1)
2(1 -1)
2(1 -1)
2(1 -1)
2(1 -1)
2(1 -1)
2(1 -1)
2(1 -1)
2(1 -1)
2(1 -1)
2(1 -1)
2(1 -1)
2(1 -1)
2(1 -1)
2(1 -1)
2(1 -1)
2(1 -1)
2(1 -1)
2(1 -1)
2(1 -1)
2(1 -1)
2(1 -1)
2(1 -1)
2(1 -1)
2(1 -1)
2(1 -1)
2(1 -1)
2(1 -1)
2(1 -1)
2(1 -1)
2(1 -1)
2(1 -1)
2(1 -1)
2(1 -1)
2(1 -1)
2(1 -1)
2(1 -1)
2(1 -1)
2(1 -1)
2(1 -1)
2(1 -1)
2(1 -1)
2(1 -1)
2(1 -1)
2(1 -1)
2(1 -1)
2(1 -1)
2(1 -1)
2(1 -1)
2(1 -1)
2(1 -1)
2(1 -1)
2(1 -1)
2(1 -1)
2(1 -1)
2(1 -1)
2(1 -1)
2(1 -1)
2(1 -1)
2(1 -1)
2(1 -1)
2(1 -1)
2(1 -1)
2(1 -1)
2(1 -1)
2(1 -1)
2(1 -1)
2(1 -1)
2(1 -1)
2(1 -1)
2(1 -1)
2(1 -1)
2(1 -1)
2(1 -1)
2(1 -1)
2(1 -1)
2(1 -1)
2(1 -1)
2(1 -1)
2(1 -1)
2(1 -1)
2(1 -1)
2(1 -1)
2(1 -1)
2(1 -1)
2(1 -1)
2(1 -1)
2(1 -1)
2(1 -1)
2(1 -1)
2(1 -1)
2(1 -1)
2(1 -1)
2(1 -1)
2(1 -1)
2(1 -1)
2(1 -1)
2(1 -1)
2(1 -1)
2(1 -1)
2(1 -1)
2(1 -1)
2(1 -1)
2(1 -1)
2(1 -1)
2(1 -1)
2(1 -1)
2(1 -1)
2(1 -1)
2(1 -1)
2(1 -1)
2(1 -1)
2(1 -1)
2(1 -1)
2(1 -1)
2(1 -1)
2(1 -1)
2(1 -1)
2(1 -1)
2(1 -1)
2(1 -1)
2(1 -1)
2(1 -1)
2(1 -1)
2(1 -1)
2(1 -1)
2(1 -1)
2(1 -1)
2(1 -1)
2(1 -1)
2(1 -1)
2(1 -1)
2(1 -1)
2(1 -1)
2(1 -1)
2(1 -1)
2(1 -1)
2(1 -1)
2(1 -1)
2(1 -1)
2(1 -1)
2(1 -1)
2(1 -1)
2(1 -1)
2(1 -1)
2(1 -1)
2(1 -1)
2(1 -1)
2(1 -1)
2(1 -1)
2(1 -1)
2(1 -1)
2(1 -1)
2(1 -1)
2(1 -1)
2(1 -1)
2(1 -1)
2(1 -1)
2(1 -1)
2(1 -1)
2(1 -1)
2(1 -1)
2(1 -1)
2(1 -1)
2(1 -1)
2(1 -1)
2(1 -1)
2(1 -1)
2(1 -1)
2(1 -1)
2(1 -1)
2(1 -1)
2(1 -1)
2(1 -1)
2(1 -1)
2(1 -1)
2(1 -1)
2(1 -1)
2(1 -1)
2(1 -1)
2(1 -1)
2(1 -1)
2(1 -1)
2(1 -1)
2(1 -1)
2(1 -1)
2(1 -1)
2(1 -1)
2(1 -1)
2(1 -1)
2(1 -1)
2(1 -1)
2(1 -1)
2(1 -1)
2(1 -1)
2(1 -1)
2(1 -1)
2(1 -1)
2(1 -1)
2(1 -1)
2(1 -1)
2(1 -1)
2(1 -1)
2(1 -1)
2(1 -1)
2(1 -1)
2(1 -1)
2(1 -1)
2(1 -1)
2(1 -1)
2(1 -1)
2(1 -1)
2(1 -1)
2(1 -1)
2(1 -1)
2(1 -1)
2(1 -1)
2(1 -1)
2(1 -1)
2(1 -1)
2(1 -1)
2(1 -1)
2(1 -1)
2(1 -1)
2(1 -1)
2(1 -1)
2(1 -1)
2(1 -1)
2(1 -1)
1(1)
1(1)
1(1)
1(1)
1(1)
1(1)
1(1)
1(1)
1(1)
1(1)
1(1)
1(1)
1(1)
1(1)
1(1)
1(1)
1(1)
1(1)
1(1)
1(1)
1(1)
1(1)
1(1)
1(1)
1(1)
1(1)
1(1)
1(1)
1(1)
1(1)
1(1)
1(1)
1(1)
1(1)
1(1)
1(1)
1(1)
1(1)
1(1)
1(1)
1(1)
1(1)
1(1)
1(1)
1(1)
1(1)
1(1)
1(1)
1(1)
1(1)
1(1)
1(1)
1(1)
1(1)
1(1)
1(1)
1(1)
1(1)
1(1)
1(1)
1(1)
1(1)
1(1)
1(1)
1(1)
1(1)
1(1)
1(1)
1(1)
1(1)
1(1)
1(1)
1(1)
1(1)
1(1)
1(1)
1(1)
1(1)
1(1)
1(1)
1(1)
1(1)
1(1)
1(1)
1(1)
1(1)
1(1)
1(1)
1(1)
1(1)
1(1)
1(1)
1(1)
1(1)
1(1)
1(1)
1(1)
1(1)
1(1)
)

// edgeNormals

462
(
2(25 29)
2(25 238)
2(99 100)
2(99 101)
2(102 103)
2(104 105)
2(105 106)
2(105 107)
2(108 109)
2(110 111)
2(110 112)
2(110 113)
2(114 115)
2(116 117)
2(116 118)
2(117 119)
2(120 121)
2(122 123)
2(124 125)
2(123 126)
2(127 128)
2(127 106)
2(125 129)
2(125 130)
2(131 132)
2(131 133)
2(100 134)
2(135 136)
2(135 137)
2(138 139)
2(140 141)
2(142 143)
2(0 60)
2(144 109)
2(144 145)
2(146 147)
2(148 149)
2(150 151)
2(152 121)
2(152 153)
2(154 126)
2(154 155)
2(2 156)
2(3 41)
2(4 78)
2(126 157)
2(5 18)
2(158 159)
2(158 160)
2(129 161)
2(162 163)
2(162 164)
2(165 166)
2(167 168)
2(167 169)
2(170 171)
2(6 172)
2(173 30)
2(174 115)
2(175 176)
2(175 177)
2(178 179)
2(178 180)
2(178 181)
2(179 182)
2(176 183)
2(184 185)
2(184 183)
2(186 187)
2(186 182)
2(188 189)
2(185 177)
2(168 190)
2(191 192)
2(191 193)
2(132 194)
2(195 196)
2(195 197)
2(198 199)
2(200 201)
2(200 190)
2(192 202)
2(203 204)
2(205 115)
2(206 207)
2(208 209)
2(193 210)
2(199 211)
2(212 213)
2(212 214)
2(128 107)
2(8 15)
2(9 215)
2(9 66)
2(10 45)
2(216 28)
2(11 42)
2(217 33)
2(217 88)
2(12 93)
2(218 219)
2(218 220)
2(109 221)
2(222 223)
2(224 225)
2(224 226)
2(227 202)
2(139 228)
2(229 230)
2(172 54)
2(143 231)
2(13 45)
2(232 231)
2(232 230)
2(14 233)
2(233 234)
2(16 81)
2(16 98)
2(201 169)
2(17 40)
2(196 225)
2(19 235)
2(236 160)
2(111 237)
2(21 97)
2(159 238)
2(22 80)
2(22 239)
2(24 53)
2(240 241)
2(26 96)
2(27 83)
2(242 241)
2(31 37)
2(31 87)
2(32 47)
2(34 243)
2(244 113)
2(38 245)
2(197 226)
2(107 246)
2(246 247)
2(248 156)
2(248 249)
2(235 91)
2(156 73)
2(42 250)
2(251 252)
2(43 55)
2(228 136)
2(234 253)
2(44 95)
2(46 254)
2(48 89)
2(49 77)
2(52 79)
2(249 255)
2(56 75)
2(57 255)
2(57 73)
2(255 71)
2(59 72)
2(61 101)
2(62 70)
2(63 101)
2(64 68)
2(64 69)
2(254 92)
2(72 256)
2(74 256)
2(75 257)
2(76 86)
2(258 231)
2(219 145)
2(85 94)
2(90 91)
2(221 220)
2(99 121)
2(102 259)
2(102 147)
2(104 260)
2(104 204)
2(108 149)
2(108 112)
2(114 209)
2(114 164)
2(116 120)
2(117 261)
2(120 262)
2(122 180)
2(122 263)
2(124 264)
2(124 210)
2(123 131)
2(127 130)
2(100 168)
2(119 142)
2(119 137)
2(135 118)
2(138 229)
2(138 137)
2(140 264)
2(140 106)
2(142 229)
2(0 61)
2(262 261)
2(262 256)
2(144 113)
2(146 103)
2(146 220)
2(148 183)
2(148 221)
2(150 209)
2(150 164)
2(152 118)
2(154 181)
2(1 18)
2(1 250)
2(2 40)
2(3 258)
2(4 36)
2(265 232)
2(265 15)
2(265 78)
2(5 215)
2(158 259)
2(129 266)
2(162 139)
2(165 176)
2(165 161)
2(166 149)
2(166 266)
2(267 268)
2(267 236)
2(267 181)
2(167 153)
2(153 226)
2(170 266)
2(170 112)
2(6 8)
2(173 240)
2(173 87)
2(174 163)
2(174 264)
2(163 227)
2(175 269)
2(179 160)
2(259 182)
2(184 147)
2(186 185)
2(188 128)
2(188 171)
2(270 199)
2(270 187)
2(270 177)
2(269 191)
2(269 198)
2(132 222)
2(195 211)
2(198 196)
2(200 194)
2(192 225)
2(141 203)
2(141 205)
2(203 251)
2(205 253)
2(206 208)
2(206 216)
2(207 172)
2(207 151)
2(208 234)
2(193 161)
2(211 263)
2(212 222)
2(187 180)
2(7 28)
2(7 54)
2(10 244)
2(216 79)
2(11 39)
2(217 242)
2(12 271)
2(218 272)
2(103 241)
2(155 50)
2(155 84)
2(268 20)
2(268 97)
2(223 250)
2(223 157)
2(224 136)
2(227 210)
2(143 273)
2(274 13)
2(274 145)
2(274 93)
2(14 52)
2(233 81)
2(194 213)
2(201 133)
2(17 214)
2(19 65)
2(236 239)
2(20 94)
2(111 189)
2(21 67)
2(159 240)
2(23 76)
2(23 80)
2(24 252)
2(26 46)
2(27 260)
2(202 228)
2(29 35)
2(242 272)
2(30 35)
2(32 34)
2(33 37)
2(36 258)
2(244 44)
2(38 53)
2(215 157)
2(39 214)
2(197 169)
2(246 235)
2(248 213)
2(41 77)
2(130 171)
2(190 249)
2(133 263)
2(251 253)
2(43 82)
2(47 271)
2(48 243)
2(49 257)
2(50 85)
2(51 55)
2(51 245)
2(247 254)
2(247 189)
2(261 273)
2(56 74)
2(58 70)
2(58 71)
2(59 60)
2(62 134)
2(63 69)
2(134 68)
2(65 83)
2(260 82)
2(273 257)
2(66 84)
2(67 239)
2(238 86)
2(219 271)
2(151 230)
2(252 98)
2(245 204)
2(272 243)
2(88 89)
2(90 92)
2(237 95)
2(237 96)
1(0)
1(1)
1(2)
1(3)
1(4)
1(5)
1(6)
1(7)
1(8)
1(9)
1(10)
1(11)
1(12)
1(13)
1(14)
1(15)
1(16)
1(17)
1(18)
1(19)
1(20)
1(21)
1(22)
1(23)
1(24)
1(25)
1(26)
1(27)
1(28)
1(29)
1(30)
1(31)
1(32)
1(33)
1(34)
1(35)
1(36)
1(37)
1(38)
1(39)
1(40)
1(41)
1(42)
1(43)
1(44)
1(45)
1(46)
1(47)
1(48)
1(49)
1(50)
1(51)
1(52)
1(53)
1(54)
1(55)
1(56)
1(57)
1(58)
1(59)
1(60)
1(61)
1(62)
1(63)
1(64)
1(65)
1(66)
1(67)
1(68)
1(69)
1(70)
1(71)
1(72)
1(73)
1(74)
1(75)
1(76)
1(77)
1(78)
1(79)
1(80)
1(81)
1(82)
1(83)
1(84)
1(85)
1(86)
1(87)
1(88)
1(89)
1(90)
1(91)
1(92)
1(93)
1(94)
1(95)
1(96)
1(97)
1(98)
)

// featurePointNormals

188
(
1(99)
1(99)
1(99)
1(102)
1(184)
1(102)
1(43)
1(104)
1(104)
1(105)
1(108)
1(108)
1(108)
1(110)
1(110)
1(114)
1(114)
1(114)
1(116)
1(116)
1(116)
1(117)
1(122)
1(199)
1(122)
1(124)
1(124)
1(124)
1(123)
1(127)
1(125)
1(131)
1(100)
1(119)
1(135)
1(135)
1(138)
1(140)
1(142)
1(0)
1(0)
1(56)
1(144)
1(144)
1(146)
1(218)
1(148)
1(150)
1(154)
1(154)
1(1)
1(42)
1(5)
1(2)
1(2)
1(2)
1(3)
1(3)
1(3)
1(4)
1(4)
1(4)
1(265)
1(6)
1(9)
1(5)
1(158)
1(158)
1(129)
1(162)
1(175)
1(178)
1(21)
1(167)
1(167)
1(6)
1(6)
1(217)
1(173)
2(25 29)
1(175)
1(175)
1(178)
1(186)
1(188)
1(191)
1(191)
1(132)
1(195)
1(195)
1(195)
1(200)
1(192)
1(141)
1(203)
1(14)
1(206)
1(212)
1(7)
1(7)
1(8)
1(9)
1(10)
1(10)
1(216)
1(11)
1(11)
1(217)
1(217)
1(12)
1(12)
1(12)
1(218)
1(155)
1(268)
1(274)
1(13)
1(14)
1(14)
1(233)
1(16)
1(16)
1(17)
1(17)
1(19)
1(19)
1(20)
1(111)
1(21)
1(21)
1(22)
1(22)
1(23)
1(23)
1(24)
1(24)
2(25 29)
2(25 238)
1(26)
1(26)
1(27)
1(27)
1(29)
1(30)
1(31)
1(31)
1(32)
1(32)
1(33)
1(34)
1(38)
1(38)
1(246)
1(248)
1(41)
1(43)
1(43)
1(44)
1(46)
1(48)
1(75)
1(49)
1(50)
1(51)
1(52)
1(56)
1(56)
1(57)
1(57)
1(58)
1(58)
1(59)
1(59)
1(61)
1(62)
1(62)
1(63)
1(64)
1(64)
1(65)
1(66)
1(72)
1(76)
1(85)
1(88)
1(90)
1(90)
1(237)
)

// featurePointEdges

188
(
8(2 26 347 165 166 346 164 3)

11
(
177
16
188
206
168
161
344
32
204
162
3
)

7(2 195 53 235 39 38 177)
7(178 225 47 306 129 283 4)
7(178 247 69 249 66 248 179)
4(4 208 35 179)
8(180 349 331 148 336 337 357 181)
10(5 7 140 324 121 301 348 131 311 180)
7(5 6 202 30 262 82 181)
5(6 21 20 90 7)
5(182 36 211 102 8)
6(182 230 231 237 238 183)
6(8 33 207 11 10 183)
7(9 304 70 251 55 238 10)
7(9 123 361 151 319 137 11)
6(185 51 50 242 58 12)
4(184 212 213 185)
7(184 85 270 150 265 83 12)
5(186 16 38 214 14)
5(13 187 205 188 186)
6(13 15 197 28 198 14)
6(15 196 31 292 340 187)
5(17 193 25 329 190)
7(189 274 253 252 87 272 190)
7(17 19 40 215 63 62 189)
7(18 23 194 21 202 201 191)
6(18 22 49 271 86 192)
6(191 243 242 244 291 192)
7(193 24 257 103 289 45 19)
5(20 250 251 327 194)
6(22 226 237 55 327 23)
6(24 75 260 79 299 25)
10(195 72 328 156 160 343 342 163 345 26)
5(196 203 199 200 197)
6(27 149 107 29 200 28)
7(27 290 105 236 39 214 198)
8(29 227 51 213 37 355 108 199)
6(201 243 58 83 263 30)
6(203 108 113 112 110 31)
3(32 363 423)
3(204 363 424)
8(205 340 350 170 157 341 169 206)
8(34 294 293 111 94 277 137 207)
7(33 102 176 101 100 173 34)
7(35 248 67 210 211 176 209)
7(208 283 132 314 282 101 209)
6(36 230 52 228 65 210)
6(212 85 266 84 269 37)
9(41 284 335 174 303 286 232 234 215)
8(40 45 321 92 93 351 285 41)
3(216 364 381)
4(217 146 364 405)
7(216 46 224 321 289 288 217)
8(218 119 300 89 88 325 142 42)
3(218 365 403)
4(42 145 365 436)
3(43 366 404)
4(219 318 366 399)
9(43 326 154 334 350 292 110 172 219)
3(220 367 399)
3(44 367 441)
7(220 318 172 112 221 223 44)
4(222 223 378 441)
9(221 113 355 269 268 56 239 91 222)
4(224 92 368 372)
3(46 368 381)
5(225 247 64 246 48)

11
(
47
125
353
171
307
308
126
127
302
122
48
)

5(226 231 52 229 49)
6(50 244 106 312 107 227)
7(228 59 245 255 74 271 229)
6(233 122 246 61 63 234)
7(232 287 124 305 352 302 233)
6(53 72 80 79 118 54)
5(235 236 139 323 54)
3(239 369 371)
4(56 109 369 417)
9(240 129 132 280 97 317 133 134 241)
4(57 241 393 450)
8(240 306 125 1 0 313 315 57)
6(245 256 78 252 254 60)
6(59 65 67 66 71 60)
6(61 64 69 68 274 62)
5(249 71 254 253 68)
6(250 90 140 141 339 70)
6(255 73 261 120 259 256)