/*--------------------------------*- C++ -*----------------------------------*\
  =========                 |
  \\      /  F ield         | OpenFOAM: The Open Source CFD Toolbox
   \\    /   O peration     | Website:  https://openfoam.org
    \\  /    A nd           | Version:  6
     \\/     M anipulation  |
\*---------------------------------------------------------------------------*/
FoamFile
{
    version     2.0;
    format      ascii;
    class       extendedFeatureEdgeMesh;
    location    "constant/extendedFeatureEdgeMesh";
    object      outlet2.extendedFeatureEdgeMesh;
}
// * * * * * * * * * * * * * * * * * * * * * * * * * * * * * * * * * * * * * //

// points

74
(
(-6.11045 183.69 -56.3108)
(-6.29474 183.697 -56.3427)
(-6.17499 179.101 -56.2218)
(-5.99782 179.114 -56.1916)
(-4.00673 181.141 -55.8928)
(-3.99258 181.339 -55.8947)
(-8.47355 181.835 -56.6775)
(-8.50613 181.639 -56.6788)
(-8.15574 180.138 -56.5857)
(-8.04329 179.982 -56.5629)
(-4.08104 180.756 -55.8972)
(-4.03434 180.945 -55.8933)
(-4.33169 180.184 -55.9279)
(-4.23627 180.359 -55.9153)
(-3.99204 181.517 -55.8985)
(-4.00944 181.709 -55.9056)
(-8.51882 181.449 -56.6769)
(-8.29342 182.386 -56.6585)
(-8.37031 182.21 -56.6679)
(-8.49552 181.063 -56.6644)
(-8.46214 180.866 -56.6544)
(-8.51421 181.265 -56.6721)
(-4.1493 182.252 -55.9416)
(-4.22507 182.422 -55.9583)
(-8.4078 180.679 -56.6409)
(-4.04278 181.89 -55.9153)
(-4.08641 182.065 -55.9267)
(-4.31753 182.59 -55.9779)
(-8.34081 180.497 -56.6254)
(-5.81086 179.146 -56.1601)
(-8.25196 180.304 -56.6059)
(-4.45074 180.016 -55.9447)
(-4.41322 182.742 -55.9977)
(-4.53434 182.897 -56.022)
(-4.15002 180.561 -55.9048)
(-4.87495 179.579 -56.0083)
(-4.73063 179.702 -55.9861)
(-5.6401 179.19 -56.1316)
(-6.54776 179.117 -56.2864)
(-6.35288 179.102 -56.2525)
(-7.09799 179.26 -56.3843)
(-6.9127 179.197 -56.351)
(-6.73288 179.149 -56.319)
(-7.28042 179.344 -56.4176)
(-7.45549 179.446 -56.45)
(-7.6285 179.565 -56.4824)
(-4.58774 179.849 -55.9647)
(-7.91974 179.834 -56.5384)
(-7.77955 179.69 -56.5111)
(-8.42794 182.031 -56.6739)
(-4.68534 183.055 -56.0514)
(-4.83325 183.19 -56.0799)
(-7.56655 183.265 -56.5524)
(-7.7112 183.149 -56.5748)
(-4.99779 183.314 -56.1109)
(-7.85364 183.014 -56.5964)
(-7.9878 182.87 -56.6164)
(-6.49335 183.679 -56.3766)
(-6.69154 183.646 -56.41)
(-8.09524 182.728 -56.6318)
(-8.19982 182.56 -56.6462)
(-5.16195 183.412 -56.1413)
(-7.40162 183.372 -56.5263)
(-7.22532 183.465 -56.498)
(-5.90928 183.666 -56.2756)
(-5.69424 183.625 -56.2377)
(-5.02024 179.478 -56.0311)
(-5.17181 179.383 -56.0551)
(-5.32112 179.305 -56.0792)
(-5.47011 179.244 -56.1035)
(-5.49949 183.567 -56.2029)
(-5.32 183.489 -56.1703)
(-6.87179 183.605 -56.4402)
(-7.05352 183.544 -56.4701)
)

// edges

74
(
(0 1)
(2 3)
(4 5)
(6 7)
(8 9)
(10 11)
(12 13)
(14 15)
(7 16)
(17 18)
(19 20)
(21 19)
(22 23)
(20 24)
(25 26)
(23 27)
(24 28)
(3 29)
(30 8)
(31 12)
(5 14)
(32 33)
(34 10)
(15 25)
(35 36)
(29 37)
(38 39)
(40 41)
(41 42)
(43 40)
(39 2)
(44 43)
(45 44)
(46 31)
(47 48)
(28 30)
(9 47)
(13 34)
(11 4)
(49 6)
(33 50)
(50 51)
(52 53)
(51 54)
(55 56)
(57 58)
(59 60)
(53 55)
(54 61)
(62 52)
(63 62)
(64 0)
(65 64)
(16 21)
(36 46)
(66 35)
(67 66)
(68 67)
(69 68)
(37 69)
(42 38)
(48 45)
(27 32)
(26 22)
(60 17)
(18 49)
(70 65)
(71 70)
(58 72)
(72 73)
(1 57)
(73 63)
(61 71)
(56 59)
)

// concaveStart mixedStart nonFeatureStart
0 0 0
// internalStart flatStart openStart multipleStart
0 0 0 74
// normals

74
(
(-0.16975 0.021237 0.985258)
(-0.16955 0.0217536 0.985281)
(-0.169532 0.0215693 0.985289)
(-0.169748 0.0216969 0.985249)
(-0.169898 0.0215286 0.985226)
(-0.169715 0.0215903 0.985257)
(-0.16957 0.0215206 0.985283)
(-0.169436 0.0210961 0.985315)
(-0.169701 0.0211848 0.985268)
(-0.169815 0.021571 0.98524)
(-0.16988 0.0212186 0.985236)
(-0.169635 0.0218712 0.985264)
(-0.169812 0.0211046 0.98525)
(-0.16995 0.0217407 0.985213)
(-0.169524 0.0219308 0.985282)
(-0.169932 0.0214191 0.985223)
(-0.169714 0.0214363 0.98526)
(-0.169678 0.0214159 0.985267)
(-0.169811 0.0214552 0.985243)
(-0.169475 0.0215656 0.985299)
(-0.169541 0.0215462 0.985288)
(-0.170176 0.0214697 0.98518)
(-0.169739 0.0216513 0.985251)
(-0.169816 0.0215039 0.985241)
(-0.169713 0.0212899 0.985263)
(-0.170008 0.0216466 0.985205)
(-0.169738 0.0215156 0.985254)
(-0.169718 0.0216007 0.985256)
(-0.169566 0.0216477 0.985281)
(-0.16987 0.0216342 0.985229)
(-0.16989 0.0215275 0.985228)
(-0.169793 0.0215503 0.985244)
(-0.1698 0.02137 0.985247)
(-0.169623 0.0211504 0.985282)
(-0.169713 0.0215521 0.985258)
(-0.169805 0.0213783 0.985246)
(-0.169712 0.0214385 0.985261)
(-0.169759 0.0212783 0.985256)
(-0.169718 0.0213956 0.98526)
(-0.16989 0.0214322 0.98523)
(-0.16973 0.0211238 0.985264)
(-0.169896 0.0218436 0.98522)
(-0.169729 0.0213938 0.985259)
(-0.169507 0.021417 0.985296)
(-0.16994 0.0214863 0.98522)
(-0.169639 0.0215457 0.985271)
(-0.169818 0.0212813 0.985246)
(-0.169795 0.0214948 0.985245)
(-0.169648 0.0214492 0.985271)
(-0.169756 0.0213324 0.985255)
(-0.169507 0.0215359 0.985294)
(-0.169833 0.0213892 0.985241)
(-0.169557 0.0214626 0.985287)
(-0.169861 0.0214394 0.985235)
(-0.169604 0.0214236 0.985279)
(-0.169461 0.0213426 0.985306)
(-0.169766 0.0219722 0.98524)
(-0.170008 0.0210097 0.985219)
(-0.169561 0.0216586 0.985282)
(-0.169718 0.0215859 0.985256)
(-0.16978 0.0215556 0.985246)
(-0.169541 0.0213633 0.985292)
(-0.169883 0.0213797 0.985232)
(-0.16978 0.0214067 0.98525)
(-0.169754 0.0216561 0.985249)
(-0.169829 0.0216502 0.985236)
(-0.169663 0.0214982 0.985268)
(-0.169628 0.0214598 0.985275)
(-0.169901 0.0212134 0.985233)
(-0.169269 0.021315 0.985339)
(-0.170091 0.0214521 0.985195)
(-0.169884 0.0214843 0.98523)
(-0.170378 0.0213054 0.985148)
(-0.169802 0.0216256 0.985241)
)

// normal volume types

74
(
0
0
0
0
0
0
0
0
0
0
0
0
0
0
0
0
0
0
0
0
0
0
0
0
0
0
0
0
0
0
0
0
0
0
0
0
0
0
0
0
0
0
0
0
0
0
0
0
0
0
0
0
0
0
0
0
0
0
0
0
0
0
0
0
0
0
0
0
0
0
0
0
0
0
)

// normalDirections

74
(
1(1)
1(1)
1(1)
1(1)
1(1)
1(1)
1(1)
1(1)
1(1)
1(1)
1(1)
1(1)
1(1)
1(1)
1(1)
1(1)
1(1)
1(1)
1(1)
1(1)
1(1)
1(1)
1(1)
1(1)
1(1)
1(1)
1(1)
1(1)
1(1)
1(1)
1(1)
1(1)
1(1)
1(1)
1(1)
1(1)
1(1)
1(1)
1(1)
1(1)
1(1)
1(1)
1(1)
1(1)
1(1)
1(1)
1(1)
1(1)
1(1)
1(1)
1(1)
1(1)
1(1)
1(1)
1(1)
1(1)
1(1)
1(1)
1(1)
1(1)
1(1)
1(1)
1(1)
1(1)
1(1)
1(1)
1(1)
1(1)
1(1)
1(1)
1(1)
1(1)
1(1)
1(1)
)

// edgeNormals

74
(
1(0)
1(1)
1(2)
1(3)
1(4)
1(5)
1(6)
1(7)
1(8)
1(9)
1(10)
1(11)
1(12)
1(13)
1(14)
1(15)
1(16)
1(17)
1(18)
1(19)
1(20)
1(21)
1(22)
1(23)
1(24)
1(25)
1(26)
1(27)
1(28)
1(29)
1(30)
1(31)
1(32)
1(33)
1(34)
1(35)
1(36)
1(37)
1(38)
1(39)
1(40)
1(41)
1(42)
1(43)
1(44)
1(45)
1(46)
1(47)
1(48)
1(49)
1(50)
1(51)
1(52)
1(53)
1(54)
1(55)
1(56)
1(57)
1(58)
1(59)
1(60)
1(61)
1(62)
1(63)
1(64)
1(65)
1(66)
1(67)
1(68)
1(69)
1(70)
1(71)
1(72)
1(73)
)

// featurePointNormals
0()
// featurePointEdges
0()
// regionEdges

74
(
0
1
2
3
4
5
6
7
8
9
10
11
12
13
14
15
16
17
18
19
20
21
22
23
24
25
26
27
28
29
30
31
32
33
34
35
36
37
38
39
40
41
42
43
44
45
46
47
48
49
50
51
52
53
54
55
56
57
58
59
60
61
62
63
64
65
66
67
68
69
70
71
72
73
)



// ************************************************************************* //
