/*--------------------------------*- C++ -*----------------------------------*\
  =========                 |
  \\      /  F ield         | OpenFOAM: The Open Source CFD Toolbox
   \\    /   O peration     | Website:  https://openfoam.org
    \\  /    A nd           | Version:  6
     \\/     M anipulation  |
\*---------------------------------------------------------------------------*/
FoamFile
{
    version     2.0;
    format      ascii;
    class       extendedFeatureEdgeMesh;
    location    "constant/extendedFeatureEdgeMesh";
    object      outlet2.extendedFeatureEdgeMesh;
}
// * * * * * * * * * * * * * * * * * * * * * * * * * * * * * * * * * * * * * //

// points

105
(
(-5.79125 180.975 -56.1966)
(-6.24086 180.173 -56.2566)
(-5.34987 180.42 -56.1084)
(-6.44778 183.448 -56.3637)
(-6.11045 183.69 -56.3108)
(-6.29474 183.697 -56.3427)
(-7.02772 179.584 -56.3793)
(-6.33345 179.347 -56.2545)
(-5.941 182.474 -56.2551)
(-5.07727 182.961 -56.1169)
(-5.80956 183.274 -56.2499)
(-4.54777 182.295 -56.0112)
(-5.35015 182.148 -56.1462)
(-5.92767 181.675 -56.2354)
(-6.67293 181.876 -56.3682)
(-4.51153 180.58 -55.9675)
(-4.9334 179.872 -56.0247)
(-6.17499 179.101 -56.2218)
(-5.99782 179.114 -56.1916)
(-7.37493 181.383 -56.4783)
(-8.11198 180.916 -56.5951)
(-7.2544 180.439 -56.437)
(-5.57852 179.487 -56.1275)
(-6.58327 181.088 -56.3355)
(-7.44755 182.199 -56.5087)
(-4.03434 180.945 -55.8933)
(-4.28352 181.446 -55.9471)
(-6.7165 182.513 -56.3896)
(-6.40957 182.952 -56.3463)
(-7.17659 183.089 -56.4814)
(-5.13043 181.334 -56.0906)
(-8.34081 180.497 -56.6254)
(-8.0033 180.325 -56.5635)
(-4.00673 181.141 -55.8928)
(-3.99258 181.339 -55.8947)
(-8.47355 181.835 -56.6775)
(-8.50613 181.639 -56.6788)
(-8.17528 181.671 -56.6225)
(-8.04329 179.982 -56.5629)
(-8.15574 180.138 -56.5857)
(-4.08104 180.756 -55.8972)
(-7.62071 179.839 -56.487)
(-4.45074 180.016 -55.9447)
(-4.33169 180.184 -55.9279)
(-4.23627 180.359 -55.9153)
(-8.11834 182.257 -56.6255)
(-7.83785 182.717 -56.5872)
(-3.99204 181.517 -55.8985)
(-4.00944 181.709 -55.9056)
(-8.51882 181.449 -56.6769)
(-8.29342 182.386 -56.6585)
(-8.37031 182.21 -56.6679)
(-8.49552 181.063 -56.6644)
(-8.46214 180.866 -56.6544)
(-8.51421 181.265 -56.6721)
(-4.04278 181.89 -55.9153)
(-4.1493 182.252 -55.9416)
(-4.22507 182.422 -55.9583)
(-8.4078 180.679 -56.6409)
(-8.42794 182.031 -56.6739)
(-4.08641 182.065 -55.9267)
(-4.31753 182.59 -55.9779)
(-5.81086 179.146 -56.1601)
(-8.25196 180.304 -56.6059)
(-4.53434 182.897 -56.022)
(-4.41322 182.742 -55.9977)
(-4.15002 180.561 -55.9048)
(-4.87495 179.579 -56.0083)
(-4.73063 179.702 -55.9861)
(-5.02024 179.478 -56.0311)
(-5.6401 179.19 -56.1316)
(-6.54776 179.117 -56.2864)
(-6.35288 179.102 -56.2525)
(-6.73288 179.149 -56.319)
(-7.09799 179.26 -56.3843)
(-6.9127 179.197 -56.351)
(-7.28042 179.344 -56.4176)
(-7.45549 179.446 -56.45)
(-7.6285 179.565 -56.4824)
(-4.58774 179.849 -55.9647)
(-7.77955 179.69 -56.5111)
(-7.91974 179.834 -56.5384)
(-4.68534 183.055 -56.0514)
(-4.83325 183.19 -56.0799)
(-7.7112 183.149 -56.5748)
(-7.56655 183.265 -56.5524)
(-4.99779 183.314 -56.1109)
(-7.85364 183.014 -56.5964)
(-7.9878 182.87 -56.6164)
(-8.19982 182.56 -56.6462)
(-6.49335 183.679 -56.3766)
(-6.69154 183.646 -56.41)
(-8.09524 182.728 -56.6318)
(-5.16195 183.412 -56.1413)
(-5.32 183.489 -56.1703)
(-7.40162 183.372 -56.5263)
(-7.22532 183.465 -56.498)
(-5.90928 183.666 -56.2756)
(-6.87179 183.605 -56.4402)
(-5.69424 183.625 -56.2377)
(-5.17181 179.383 -56.0551)
(-5.32112 179.305 -56.0792)
(-5.47011 179.244 -56.1035)
(-5.49949 183.567 -56.2029)
(-7.05352 183.544 -56.4701)
)

// edges

238
(
(1 2)
(2 0)
(5 3)
(7 1)
(6 7)
(8 9)
(10 8)
(9 10)
(9 12)
(11 9)
(8 12)
(8 13)
(8 14)
(15 2)
(2 16)
(7 17)
(19 20)
(7 22)
(23 0)
(13 23)
(23 1)
(19 14)
(24 19)
(26 15)
(8 27)
(28 29)
(29 27)
(3 29)
(26 30)
(30 2)
(19 23)
(32 20)
(31 32)
(26 33)
(36 37)
(38 32)
(41 6)
(2 22)
(22 16)
(42 15)
(16 42)
(46 45)
(48 26)
(12 30)
(45 50)
(20 52)
(55 11)
(26 55)
(57 11)
(58 20)
(37 19)
(37 45)
(59 37)
(45 59)
(29 46)
(20 37)
(22 18)
(11 65)
(15 66)
(68 16)
(69 16)
(70 22)
(7 71)
(75 6)
(6 74)
(77 41)
(80 41)
(41 38)
(82 9)
(86 9)
(46 87)
(91 3)
(46 92)
(46 84)
(10 4)
(93 9)
(29 95)
(10 97)
(22 100)
(22 102)
(10 103)
(104 29)
(0 1)
(3 4)
(1 6)
(12 11)
(13 12)
(14 13)
(16 15)
(18 7)
(20 21)
(21 19)
(22 1)
(0 13)
(14 24)
(15 25)
(25 26)
(27 14)
(27 28)
(8 28)
(3 28)
(28 10)
(10 3)
(24 27)
(29 24)
(30 15)
(11 30)
(26 11)
(23 14)
(20 31)
(34 26)
(37 35)
(32 39)
(15 40)
(21 41)
(6 21)
(32 21)
(21 1)
(23 21)
(15 43)
(44 15)
(24 46)
(45 24)
(26 47)
(49 37)
(51 45)
(53 20)
(20 54)
(11 56)
(24 37)
(60 11)
(61 11)
(37 54)
(62 22)
(32 63)
(30 0)
(64 11)
(16 67)
(22 69)
(72 7)
(6 73)
(73 7)
(6 76)
(6 77)
(41 78)
(16 79)
(41 81)
(32 41)
(9 64)
(83 9)
(29 85)
(84 29)
(88 46)
(46 89)
(89 45)
(3 90)
(94 10)
(9 94)
(29 96)
(3 98)
(98 29)
(10 99)
(22 101)
(30 13)
(4 5)
(17 18)
(33 34)
(35 36)
(39 38)
(40 25)
(43 44)
(47 48)
(36 49)
(50 51)
(52 53)
(54 52)
(56 57)
(53 58)
(55 60)
(57 61)
(58 31)
(18 62)
(63 39)
(42 43)
(34 47)
(65 64)
(66 40)
(48 55)
(67 68)
(62 70)
(71 72)
(74 75)
(75 73)
(76 74)
(72 17)
(77 76)
(78 77)
(79 42)
(81 80)
(31 63)
(38 81)
(44 66)
(25 33)
(59 35)
(64 82)
(82 83)
(85 84)
(83 86)
(87 88)
(90 91)
(92 89)
(84 87)
(86 93)
(95 85)
(96 95)
(97 4)
(99 97)
(49 54)
(68 79)
(69 67)
(100 69)
(101 100)
(102 101)
(70 102)
(73 71)
(80 78)
(61 65)
(60 56)
(89 50)
(51 59)
(103 99)
(94 103)
(91 98)
(98 104)
(5 90)
(104 96)
(93 94)
(88 92)
)

// concaveStart mixedStart nonFeatureStart
0 0 105
// internalStart flatStart openStart multipleStart
0 0 164 238
// normals

134
(
(-0.16975 0.021237 0.985258)
(-0.16955 0.0217536 0.985281)
(-0.169532 0.0215693 0.985289)
(-0.169748 0.0216969 0.985249)
(-0.169898 0.0215286 0.985226)
(-0.169715 0.0215903 0.985257)
(-0.16957 0.0215206 0.985283)
(-0.169436 0.0210961 0.985315)
(-0.169701 0.0211848 0.985268)
(-0.169815 0.021571 0.98524)
(-0.16988 0.0212186 0.985236)
(-0.169635 0.0218712 0.985264)
(-0.169812 0.0211046 0.98525)
(-0.16995 0.0217407 0.985213)
(-0.169524 0.0219308 0.985282)
(-0.169932 0.0214191 0.985223)
(-0.169714 0.0214363 0.98526)
(-0.169678 0.0214159 0.985267)
(-0.169811 0.0214552 0.985243)
(-0.169475 0.0215656 0.985299)
(-0.169541 0.0215462 0.985288)
(-0.170176 0.0214697 0.98518)
(-0.169739 0.0216513 0.985251)
(-0.169816 0.0215039 0.985241)
(-0.169713 0.0212899 0.985263)
(-0.170008 0.0216466 0.985205)
(-0.169738 0.0215156 0.985254)
(-0.169718 0.0216007 0.985256)
(-0.169566 0.0216477 0.985281)
(-0.16987 0.0216342 0.985229)
(-0.16989 0.0215275 0.985228)
(-0.169793 0.0215503 0.985244)
(-0.1698 0.02137 0.985247)
(-0.169623 0.0211504 0.985282)
(-0.169713 0.0215521 0.985258)
(-0.169805 0.0213783 0.985246)
(-0.169712 0.0214385 0.985261)
(-0.169759 0.0212783 0.985256)
(-0.169718 0.0213956 0.98526)
(-0.16989 0.0214322 0.98523)
(-0.16973 0.0211238 0.985264)
(-0.169896 0.0218436 0.98522)
(-0.169729 0.0213938 0.985259)
(-0.169507 0.021417 0.985296)
(-0.16994 0.0214863 0.98522)
(-0.169639 0.0215457 0.985271)
(-0.169818 0.0212813 0.985246)
(-0.169795 0.0214948 0.985245)
(-0.169648 0.0214492 0.985271)
(-0.169756 0.0213324 0.985255)
(-0.169507 0.0215359 0.985294)
(-0.169833 0.0213892 0.985241)
(-0.169557 0.0214626 0.985287)
(-0.169861 0.0214394 0.985235)
(-0.169604 0.0214236 0.985279)
(-0.169461 0.0213426 0.985306)
(-0.169766 0.0219722 0.98524)
(-0.170008 0.0210097 0.985219)
(-0.169561 0.0216586 0.985282)
(-0.169718 0.0215859 0.985256)
(-0.16978 0.0215556 0.985246)
(-0.169541 0.0213633 0.985292)
(-0.169883 0.0213797 0.985232)
(-0.16978 0.0214067 0.98525)
(-0.169754 0.0216561 0.985249)
(-0.169829 0.0216502 0.985236)
(-0.169663 0.0214982 0.985268)
(-0.169628 0.0214598 0.985275)
(-0.169901 0.0212134 0.985233)
(-0.169269 0.021315 0.985339)
(-0.170091 0.0214521 0.985195)
(-0.169884 0.0214843 0.98523)
(-0.170378 0.0213054 0.985148)
(-0.169802 0.0216256 0.985241)
(-0.16984 0.0215085 0.985237)
(-0.169824 0.021449 0.985241)
(-0.169763 0.0215711 0.985249)
(-0.169753 0.0215308 0.985251)
(-0.169743 0.0215297 0.985253)
(-0.169759 0.0215122 0.985251)
(-0.169758 0.0214878 0.985251)
(-0.169749 0.0214714 0.985253)
(-0.169826 0.021499 0.98524)
(-0.169699 0.0216285 0.985259)
(-0.169698 0.021454 0.985262)
(-0.169691 0.0214603 0.985264)
(-0.169756 0.0214591 0.985252)
(-0.169773 0.0214587 0.98525)
(-0.169795 0.0214864 0.985245)
(-0.169699 0.0215147 0.985261)
(-0.169707 0.0215573 0.985259)
(-0.169793 0.0214412 0.985247)
(-0.169717 0.0214335 0.98526)
(-0.169772 0.0215235 0.985248)
(-0.169734 0.0214814 0.985256)
(-0.169713 0.021536 0.985258)
(-0.169726 0.0214431 0.985258)
(-0.169743 0.0215711 0.985252)
(-0.16974 0.0214375 0.985256)
(-0.1697 0.0216068 0.985259)
(-0.169681 0.0215786 0.985263)
(-0.169744 0.0216026 0.985251)
(-0.169611 0.0214506 0.985278)
(-0.16978 0.0214956 0.985248)
(-0.169793 0.0215326 0.985245)
(-0.169707 0.0214708 0.985261)
(-0.169702 0.0214956 0.985261)
(-0.169731 0.0214506 0.985257)
(-0.169757 0.0216107 0.985249)
(-0.169785 0.0215394 0.985246)
(-0.169734 0.0214311 0.985257)
(-0.169762 0.0214635 0.985251)
(-0.169693 0.0214768 0.985263)
(-0.16969 0.0215044 0.985263)
(-0.1697 0.0215009 0.985261)
(-0.169744 0.0213944 0.985256)
(-0.169776 0.021413 0.98525)
(-0.169733 0.0215359 0.985255)
(-0.1697 0.0214441 0.985262)
(-0.169951 0.0216008 0.985216)
(-0.169705 0.0214894 0.985261)
(-0.169766 0.0214721 0.98525)
(-0.169845 0.0215201 0.985236)
(-0.169748 0.0215352 0.985252)
(-0.169693 0.0215299 0.985262)
(-0.169703 0.021442 0.985262)
(-0.16972 0.0214724 0.985258)
(-0.169941 0.0215083 0.98522)
(-0.169848 0.0213781 0.985238)
(-0.169726 0.0214936 0.985257)
(-0.169742 0.0215301 0.985253)
(-0.169747 0.02149 0.985253)
(-0.169819 0.0214858 0.985241)
(-0.169696 0.021499 0.985262)
)

// normal volume types

134
(
0
0
0
0
0
0
0
0
0
0
0
0
0
0
0
0
0
0
0
0
0
0
0
0
0
0
0
0
0
0
0
0
0
0
0
0
0
0
0
0
0
0
0
0
0
0
0
0
0
0
0
0
0
0
0
0
0
0
0
0
0
0
0
0
0
0
0
0
0
0
0
0
0
0
0
0
0
0
0
0
0
0
0
0
0
0
0
0
0
0
0
0
0
0
0
0
0
0
0
0
0
0
0
0
0
0
0
0
0
0
0
0
0
0
0
0
0
0
0
0
0
0
0
0
0
0
0
0
0
0
0
0
0
0
)

// normalDirections

238
(
2(1 -1)
2(1 -1)
2(1 -1)
2(1 -1)
2(1 -1)
2(1 -1)
2(1 -1)
2(1 -1)
2(1 -1)
2(1 -1)
2(1 -1)
2(1 -1)
2(1 -1)
2(1 -1)
2(1 -1)
2(1 -1)
2(1 -1)
2(1 -1)
2(1 -1)
2(1 -1)
2(1 -1)
2(1 -1)
2(1 -1)
2(1 -1)
2(1 -1)
2(1 -1)
2(1 -1)
2(1 -1)
2(1 -1)
2(1 -1)
2(1 -1)
2(1 -1)
2(1 -1)
2(1 -1)
2(1 -1)
2(1 -1)
2(1 -1)
2(1 -1)
2(1 -1)
2(1 -1)
2(1 -1)
2(1 -1)
2(1 -1)
2(1 -1)
2(1 -1)
2(1 -1)
2(1 -1)
2(1 -1)
2(1 -1)
2(1 -1)
2(1 -1)
2(1 -1)
2(1 -1)
2(1 -1)
2(1 -1)
2(1 -1)
2(1 -1)
2(1 -1)
2(1 -1)
2(1 -1)
2(1 -1)
2(1 -1)
2(1 -1)
2(1 -1)
2(1 -1)
2(1 -1)
2(1 -1)
2(1 -1)
2(1 -1)
2(1 -1)
2(1 -1)
2(1 -1)
2(1 -1)
2(1 -1)
2(1 -1)
2(1 -1)
2(1 -1)
2(1 -1)
2(1 -1)
2(1 -1)
2(1 -1)
2(1 -1)
2(1 -1)
2(1 -1)
2(1 -1)
2(1 -1)
2(1 -1)
2(1 -1)
2(1 -1)
2(1 -1)
2(1 -1)
2(1 -1)
2(1 -1)
2(1 -1)
2(1 -1)
2(1 -1)
2(1 -1)
2(1 -1)
2(1 -1)
2(1 -1)
2(1 -1)
2(1 -1)
2(1 -1)
2(1 -1)
2(1 -1)
2(1 -1)
2(1 -1)
2(1 -1)
2(1 -1)
2(1 -1)
2(1 -1)
2(1 -1)
2(1 -1)
2(1 -1)
2(1 -1)
2(1 -1)
2(1 -1)
2(1 -1)
2(1 -1)
2(1 -1)
2(1 -1)
2(1 -1)
2(1 -1)
2(1 -1)
2(1 -1)
2(1 -1)
2(1 -1)
2(1 -1)
2(1 -1)
2(1 -1)
2(1 -1)
2(1 -1)
2(1 -1)
2(1 -1)
2(1 -1)
2(1 -1)
2(1 -1)
2(1 -1)
2(1 -1)
2(1 -1)
2(1 -1)
2(1 -1)
2(1 -1)
2(1 -1)
2(1 -1)
2(1 -1)
2(1 -1)
2(1 -1)
2(1 -1)
2(1 -1)
2(1 -1)
2(1 -1)
2(1 -1)
2(1 -1)
2(1 -1)
2(1 -1)
2(1 -1)
2(1 -1)
2(1 -1)
2(1 -1)
2(1 -1)
2(1 -1)
2(1 -1)
2(1 -1)
1(1)
1(1)
1(1)
1(1)
1(1)
1(1)
1(1)
1(1)
1(1)
1(1)
1(1)
1(1)
1(1)
1(1)
1(1)
1(1)
1(1)
1(1)
1(1)
1(1)
1(1)
1(1)
1(1)
1(1)
1(1)
1(1)
1(1)
1(1)
1(1)
1(1)
1(1)
1(1)
1(1)
1(1)
1(1)
1(1)
1(1)
1(1)
1(1)
1(1)
1(1)
1(1)
1(1)
1(1)
1(1)
1(1)
1(1)
1(1)
1(1)
1(1)
1(1)
1(1)
1(1)
1(1)
1(1)
1(1)
1(1)
1(1)
1(1)
1(1)
1(1)
1(1)
1(1)
1(1)
1(1)
1(1)
1(1)
1(1)
1(1)
1(1)
1(1)
1(1)
1(1)
1(1)
)

// edgeNormals

238
(
2(74 75)
2(74 76)
2(0 70)
2(77 78)
2(77 79)
2(80 81)
2(80 82)
2(80 83)
2(84 81)
2(84 85)
2(81 86)
2(86 87)
2(87 88)
2(89 90)
2(89 91)
2(1 30)
2(92 93)
2(78 94)
2(95 96)
2(95 97)
2(96 98)
2(99 100)
2(99 101)
2(102 103)
2(88 104)
2(105 106)
2(105 107)
2(106 108)
2(103 109)
2(90 76)
2(100 110)
2(111 112)
2(111 35)
2(2 38)
2(3 8)
2(4 113)
2(114 115)
2(91 75)
2(91 116)
2(117 19)
2(117 33)
2(118 119)
2(7 23)
2(120 121)
2(9 64)
2(10 11)
2(122 14)
2(122 23)
2(12 15)
2(13 16)
2(101 93)
2(123 124)
2(123 39)
2(123 65)
2(125 126)
2(127 93)
2(17 94)
2(21 62)
2(22 37)
2(24 54)
2(116 55)
2(25 59)
2(26 60)
2(27 28)
2(27 29)
2(32 115)
2(34 61)
2(36 113)
2(40 41)
2(43 48)
2(44 47)
2(45 68)
2(46 73)
2(47 126)
2(128 51)
2(48 72)
2(49 50)
2(51 52)
2(56 57)
2(58 59)
2(66 67)
2(69 71)
2(74 96)
2(0 128)
2(77 129)
2(84 120)
2(86 121)
2(87 97)
2(89 117)
2(1 94)
2(92 112)
2(92 110)
2(78 75)
2(95 130)
2(99 131)
2(102 5)
2(102 38)
2(88 131)
2(105 104)
2(104 82)
2(132 106)
2(132 82)
2(132 128)
2(107 131)
2(107 125)
2(103 90)
2(109 120)
2(109 122)
2(100 97)
2(111 16)
2(2 20)
2(3 39)
2(4 18)
2(5 22)
2(114 133)
2(114 129)
2(112 133)
2(98 129)
2(98 110)
2(6 19)
2(6 37)
2(118 125)
2(118 124)
2(7 20)
2(8 53)
2(9 65)
2(10 13)
2(11 127)
2(12 63)
2(101 124)
2(14 63)
2(15 62)
2(127 53)
2(17 25)
2(18 35)
2(76 130)
2(21 85)
2(24 55)
2(116 56)
2(26 30)
2(79 28)
2(79 60)
2(29 31)
2(31 115)
2(32 61)
2(33 54)
2(34 36)
2(133 113)
2(40 85)
2(41 43)
2(42 49)
2(42 126)
2(44 73)
2(119 46)
2(119 64)
2(45 70)
2(83 67)
2(83 72)
2(50 71)
2(108 68)
2(108 69)
2(52 66)
2(57 58)
2(130 121)
1(0)
1(1)
1(2)
1(3)
1(4)
1(5)
1(6)
1(7)
1(8)
1(9)
1(10)
1(11)
1(12)
1(13)
1(14)
1(15)
1(16)
1(17)
1(18)
1(19)
1(20)
1(21)
1(22)
1(23)
1(24)
1(25)
1(26)
1(27)
1(28)
1(29)
1(30)
1(31)
1(32)
1(33)
1(34)
1(35)
1(36)
1(37)
1(38)
1(39)
1(40)
1(41)
1(42)
1(43)
1(44)
1(45)
1(46)
1(47)
1(48)
1(49)
1(50)
1(51)
1(52)
1(53)
1(54)
1(55)
1(56)
1(57)
1(58)
1(59)
1(60)
1(61)
1(62)
1(63)
1(64)
1(65)
1(66)
1(67)
1(68)
1(69)
1(70)
1(71)
1(72)
1(73)
)

// featurePointNormals

105
(
1(74)
1(74)
1(74)
1(0)
1(128)
1(0)
1(77)
1(77)
1(80)
1(80)
1(80)
1(84)
1(84)
1(86)
1(87)
1(89)
1(89)
1(1)
1(17)
1(92)
1(92)
1(92)
1(78)
1(95)
1(99)
1(102)
1(102)
1(88)
1(105)
1(105)
1(103)
1(111)
1(111)
1(2)
1(2)
1(3)
1(3)
1(3)
1(4)
1(4)
1(5)
1(114)
1(117)
1(6)
1(6)
1(118)
1(118)
1(7)
1(7)
1(8)
1(9)
1(9)
1(10)
1(10)
1(11)
1(122)
1(12)
1(12)
1(13)
1(123)
1(14)
1(15)
1(17)
1(18)
1(21)
1(21)
1(22)
1(24)
1(24)
1(116)
1(25)
1(26)
1(26)
1(79)
1(27)
1(27)
1(29)
1(32)
1(32)
1(33)
1(34)
1(34)
1(40)
1(41)
1(47)
1(42)
1(43)
1(44)
1(44)
1(119)
1(45)
1(45)
1(46)
1(48)
1(83)
1(49)
1(50)
1(51)
1(108)
1(52)
1(56)
1(57)
1(58)
1(66)
1(69)
)

// featurePointEdges

105
(
5(82 18 93 135 1)
7(82 20 117 84 3 92 0)
6(0 37 14 13 29 1)
8(83 102 100 27 159 71 155 2)
4(83 74 164 215)
3(2 164 234)
9(4 140 63 64 142 143 36 115 84)
8(3 17 89 15 139 62 141 4)
7(5 10 11 12 24 99 6)
10(5 8 9 148 68 149 69 75 157 7)
9(6 101 102 74 77 161 80 156 7)

11
(
85
106
107
46
130
128
48
131
57
136
9
)

5(8 10 86 43 85)
6(11 87 19 93 163 86)
6(12 97 94 21 108 87)
10(13 105 23 95 113 58 120 119 39 88)
8(14 38 60 137 59 145 40 88)
3(15 165 194)
4(89 56 165 181)
6(91 30 21 22 50 16)
9(90 31 109 49 126 45 127 55 16)
7(90 116 114 115 117 118 91)

11
(
92
37
38
138
78
162
79
61
133
56
17
)

6(18 20 118 30 108 19)
7(94 103 104 121 122 129 22)
4(95 96 169 202)
9(23 28 107 47 42 123 110 33 96)
5(24 98 26 103 97)
5(98 99 101 100 25)

11
(
25
27
160
81
158
76
150
151
54
104
26
)

7(105 29 135 163 43 106 28)
4(109 32 180 199)
7(31 116 147 35 112 134 32)
3(33 166 202)
3(110 166 184)
3(111 167 203)
3(34 167 172)
9(34 124 132 55 50 129 51 52 111)
4(35 67 168 200)
3(112 168 182)
3(113 169 186)
8(114 147 67 146 66 144 65 36)
4(39 40 183 197)
3(119 170 183)
3(120 170 201)
7(122 51 53 125 44 154 41)
8(121 54 73 70 152 72 153 41)
3(123 171 184)
3(42 171 187)
3(124 172 217)
3(44 173 228)
3(125 173 229)
3(45 174 175)
3(126 174 177)
4(127 132 175 217)
4(46 47 178 187)
3(128 176 227)
3(48 176 179)
3(49 177 180)
4(52 53 203 229)
3(130 178 227)
3(131 179 226)
3(133 181 189)
3(134 182 199)
4(136 148 185 204)
3(57 185 226)
3(58 186 201)
3(137 188 219)
3(59 188 218)
4(60 138 219 220)
3(61 189 223)
3(62 190 224)
3(139 190 194)
4(140 141 192 224)
3(64 191 193)
3(63 191 192)
3(142 193 195)
4(143 65 195 196)
3(144 196 225)
3(145 197 218)
3(66 198 225)
3(146 198 200)
3(68 204 205)
3(149 205 207)
4(151 73 206 211)
3(150 206 213)
3(69 207 212)
3(70 208 211)
3(152 208 237)
4(153 154 210 228)
3(155 209 234)
3(71 209 232)
3(72 210 237)
3(75 212 236)
4(156 157 231 236)
3(76 213 214)
3(158 214 235)
3(77 215 216)
4(159 160 232 233)
3(161 216 230)
3(78 220 221)
3(162 221 222)
3(79 222 223)
3(80 230 231)
3(81 233 235)
)

// regionEdges

74
(
164
165
166
167
168
169
170
171
172
173
174
175
176
177
178
179
180
181
182
183
184
185
186
187
188
189
190
191
192
193
194
195
196
197
198
199
200
201
202
203
204
205
206
207
208
209
210
211
212
213
214
215
216
217
218
219
220
221
222
223
224
225
226
227
228
229
230
231
232
233
234
235
236
237
)



// ************************************************************************* //
