/*--------------------------------*- C++ -*----------------------------------*\
  =========                 |
  \\      /  F ield         | OpenFOAM: The Open Source CFD Toolbox
   \\    /   O peration     | Website:  https://openfoam.org
    \\  /    A nd           | Version:  6
     \\/     M anipulation  |
\*---------------------------------------------------------------------------*/
FoamFile
{
    version     2.0;
    format      ascii;
    class       extendedFeatureEdgeMesh;
    location    "constant/extendedFeatureEdgeMesh";
    object      outlet3.extendedFeatureEdgeMesh;
}
// * * * * * * * * * * * * * * * * * * * * * * * * * * * * * * * * * * * * * //

// points

111
(
(-0.056657 183.052 -58.9162)
(-0.0241332 184.039 -58.4764)
(-0.554573 183.332 -58.2277)
(0.717347 184.562 -59.0481)
(0.654612 185.62 -58.4685)
(0.20201 184.866 -58.3289)
(-1.33454 185.726 -56.2077)
(-1.22078 185.287 -56.5455)
(-1.06906 185.983 -56.3786)
(-0.791681 185.771 -56.789)
(-0.357371 186.067 -57.1288)
(-0.72478 186.416 -56.5522)
(0.544566 183.554 -59.3417)
(0.993255 184.034 -59.6091)
(-0.734834 183.927 -57.741)
(-0.996894 184.479 -57.1835)
(-1.31003 183.7 -57.2112)
(-1.04973 183.184 -57.7492)
(-0.372293 184.667 -57.7871)
(-0.059093 185.503 -57.7319)
(0.322581 186.421 -57.7135)
(-0.631196 185.298 -57.1951)
(0.857463 186.443 -58.2971)
(1.20315 186.187 -58.8045)
(1.26776 186.854 -58.5549)
(0.842784 187.236 -57.8983)
(-0.840885 182.876 -58.1295)
(-0.563825 182.776 -58.4857)
(-0.157348 186.965 -56.9183)
(-1.44414 184.185 -56.8285)
(1.51568 186.51 -58.9958)
(1.19904 187.209 -58.3071)
(1.29638 184.163 -59.8837)
(1.29964 184.586 -59.6835)
(1.38688 184.359 -59.8898)
(0.942099 183.577 -59.7724)
(1.44389 187.102 -58.6308)
(1.36454 187.214 -58.4886)
(1.46952 184.567 -59.8811)
(1.53995 184.772 -59.8607)
(0.360301 187.258 -57.3517)
(-1.57793 183.798 -56.8666)
(-1.60059 183.97 -56.7584)
(1.57427 186.09 -59.2636)
(1.69472 186.369 -59.2628)
(-1.54727 183.64 -56.9766)
(1.07237 183.77 -59.824)
(1.18387 183.953 -59.8596)
(1.72308 185.854 -59.5425)
(1.72087 186.034 -59.4535)
(-1.39987 183.205 -57.3501)
(-0.729743 182.565 -58.4031)
(-0.6213 182.546 -58.5328)
(-0.502406 182.544 -58.6658)
(1.50865 186.983 -58.7602)
(1.09123 187.468 -58.0624)
(0.975762 187.53 -57.9045)
(1.27872 187.313 -58.3459)
(0.849867 187.569 -57.7458)
(0.711127 187.588 -57.5827)
(-1.41543 185.496 -56.2283)
(-1.4897 185.245 -56.267)
(0.343872 183.115 -59.3308)
(0.308616 187.532 -57.1623)
(0.173558 187.477 -57.039)
(1.19163 187.394 -58.2101)
(0.446776 187.57 -57.2975)
(0.0318367 187.405 -56.9164)
(1.56551 186.849 -58.8879)
(-0.118756 187.314 -56.7929)
(-0.267398 187.208 -56.6786)
(-0.557047 186.947 -56.4827)
(1.71316 185.66 -59.6252)
(1.36162 185.469 -59.3265)
(-0.413793 187.085 -56.5752)
(-1.50397 183.473 -57.1052)
(1.60434 184.999 -59.8229)
(0.816016 183.414 -59.7109)
(-1.41511 184.652 -56.6359)
(-1.33365 183.079 -57.4845)
(0.681291 183.258 -59.6367)
(-1.16906 182.847 -57.779)
(-1.06095 182.744 -57.9488)
(1.65259 185.226 -59.7671)
(0.54643 183.116 -59.555)
(0.268968 182.876 -59.3628)
(-1.25925 182.96 -57.6242)
(-0.689407 186.805 -56.4043)
(-0.811571 186.657 -56.3397)
(-0.94815 182.663 -58.113)
(-0.366337 182.561 -58.8084)
(-0.214063 182.602 -58.9582)
(0.11875 182.769 -59.2472)
(-0.0453382 182.674 -59.111)
(-0.933994 186.489 -56.2845)
(-1.03664 186.33 -56.2476)
(-1.60413 184.568 -56.4662)
(-1.61468 184.349 -56.5602)
(1.68991 185.454 -59.6984)
(-1.5778 184.792 -56.3876)
(-1.54036 185.018 -56.3202)
(-1.61305 184.152 -56.657)
(-1.13975 186.151 -56.2192)
(-1.24198 185.946 -56.2044)
(-0.840115 182.603 -58.262)
(0.414733 182.994 -59.4678)
(-1.45407 183.329 -57.2299)
(0.580061 187.587 -57.4373)
(1.66348 186.537 -59.1469)
(1.62026 186.692 -59.0243)
(1.71109 186.203 -59.3609)
)

// edges

256
(
(31 25)
(25 55)
(31 37)
(12 84)
(0 92)
(11 94)
(90 27)
(49 43)
(59 25)
(65 25)
(95 11)
(2 0)
(1 2)
(5 3)
(4 5)
(7 8)
(11 9)
(10 11)
(3 12)
(15 16)
(14 15)
(16 17)
(5 19)
(20 19)
(21 19)
(10 21)
(20 10)
(22 23)
(25 20)
(22 25)
(2 17)
(26 2)
(17 26)
(2 14)
(21 7)
(15 21)
(7 15)
(15 18)
(29 16)
(15 29)
(30 24)
(23 30)
(24 31)
(32 33)
(12 35)
(1 5)
(24 36)
(33 38)
(20 40)
(40 28)
(29 42)
(30 43)
(45 16)
(13 46)
(47 13)
(43 48)
(50 17)
(25 58)
(7 60)
(12 0)
(12 1)
(40 63)
(31 65)
(28 64)
(30 68)
(70 28)
(71 11)
(11 28)
(48 73)
(74 28)
(12 77)
(73 76)
(86 17)
(88 11)
(89 26)
(0 90)
(73 3)
(33 73)
(8 11)
(78 96)
(98 73)
(23 73)
(73 4)
(100 7)
(62 84)
(8 102)
(103 8)
(25 40)
(104 27)
(26 104)
(16 106)
(29 97)
(107 25)
(40 107)
(30 108)
(110 43)
(0 1)
(3 4)
(6 7)
(8 6)
(9 10)
(12 13)
(13 3)
(16 14)
(17 14)
(1 18)
(14 1)
(18 14)
(19 18)
(18 5)
(4 20)
(19 4)
(19 10)
(21 18)
(23 24)
(24 22)
(20 22)
(2 27)
(27 0)
(20 28)
(28 10)
(9 7)
(21 9)
(4 22)
(25 24)
(33 13)
(13 32)
(34 33)
(35 13)
(37 24)
(39 33)
(41 29)
(44 30)
(43 44)
(16 41)
(1 3)
(16 50)
(52 27)
(27 51)
(53 27)
(24 54)
(56 25)
(57 31)
(61 7)
(0 62)
(62 12)
(33 3)
(64 40)
(40 66)
(67 28)
(68 24)
(69 28)
(28 71)
(73 72)
(75 16)
(76 33)
(15 78)
(78 29)
(79 17)
(12 80)
(17 81)
(82 17)
(83 73)
(0 85)
(85 62)
(11 87)
(26 82)
(91 0)
(0 93)
(95 8)
(97 78)
(43 23)
(73 43)
(7 78)
(78 99)
(78 100)
(29 101)
(4 23)
(26 27)
(8 9)
(62 105)
(109 30)
(32 34)
(36 37)
(38 39)
(42 41)
(34 38)
(41 45)
(46 47)
(48 49)
(51 52)
(52 53)
(54 36)
(55 56)
(37 57)
(58 59)
(60 61)
(63 64)
(66 63)
(64 67)
(67 69)
(69 70)
(72 48)
(70 74)
(45 75)
(35 46)
(39 76)
(77 35)
(50 79)
(80 77)
(74 71)
(81 82)
(76 83)
(84 80)
(79 86)
(87 88)
(86 81)
(82 89)
(90 91)
(92 85)
(93 92)
(94 95)
(96 97)
(83 98)
(99 96)
(100 99)
(101 42)
(61 100)
(102 103)
(6 60)
(98 72)
(95 102)
(71 87)
(104 51)
(53 90)
(91 93)
(89 104)
(105 84)
(106 50)
(85 105)
(75 106)
(47 32)
(97 101)
(103 6)
(88 94)
(59 107)
(107 66)
(56 58)
(65 55)
(57 65)
(108 109)
(68 54)
(109 68)
(44 108)
(49 110)
(110 44)
)

// concaveStart mixedStart nonFeatureStart
0 0 111
// internalStart flatStart openStart multipleStart
7 11 182 256
// normals

146
(
(0.707401 -0.306817 0.636747)
(0.707177 -0.307375 0.636727)
(0.707077 -0.306347 0.637333)
(0.707411 -0.307233 0.636535)
(0.706756 -0.307442 0.637162)
(0.707394 -0.306231 0.637038)
(0.707002 -0.30682 0.637189)
(0.707775 -0.306121 0.636666)
(0.707472 -0.307143 0.636511)
(0.707201 -0.307138 0.636814)
(0.70722 -0.307427 0.636654)
(0.707064 -0.306365 0.637339)
(0.707968 -0.304678 0.637144)
(0.707026 -0.306824 0.63716)
(0.707288 -0.307425 0.63658)
(0.706817 -0.307152 0.637235)
(0.707469 -0.306684 0.636736)
(0.707055 -0.306758 0.63716)
(0.707523 -0.306957 0.636544)
(0.707965 -0.306848 0.636105)
(0.707617 -0.307396 0.636228)
(0.707579 -0.307254 0.636339)
(0.707315 -0.306974 0.636768)
(0.706992 -0.306828 0.637196)
(0.707156 -0.306689 0.637081)
(0.70745 -0.30705 0.63658)
(0.70724 -0.307383 0.636654)
(0.70708 -0.307842 0.636609)
(0.707355 -0.307754 0.636346)
(0.707536 -0.306823 0.636594)
(0.707589 -0.306855 0.63652)
(0.708175 -0.306682 0.635952)
(0.707295 -0.305949 0.637282)
(0.707776 -0.306382 0.63654)
(0.707728 -0.30687 0.636358)
(0.707126 -0.306725 0.637097)
(0.708147 -0.307047 0.635806)
(0.707866 -0.305907 0.636668)
(0.706794 -0.307223 0.637225)
(0.706817 -0.308585 0.636541)
(0.707704 -0.307182 0.636235)
(0.707158 -0.307593 0.636643)
(0.7077 -0.306533 0.636552)
(0.707392 -0.307053 0.636643)
(0.706975 -0.30667 0.637291)
(0.70734 -0.307096 0.63668)
(0.707282 -0.30672 0.636926)
(0.708193 -0.306056 0.636233)
(0.707532 -0.306164 0.636916)
(0.707495 -0.306505 0.636793)
(0.706705 -0.306682 0.637585)
(0.707602 -0.307339 0.636272)
(0.706419 -0.307779 0.637373)
(0.707483 -0.306891 0.63662)
(0.707498 -0.306952 0.636574)
(0.706734 -0.307517 0.63715)
(0.708079 -0.306961 0.635924)
(0.707228 -0.306929 0.636885)
(0.707135 -0.306655 0.637121)
(0.707404 -0.305884 0.637192)
(0.706901 -0.307206 0.637115)
(0.707233 -0.307102 0.636796)
(0.70765 -0.3065 0.636623)
(0.708255 -0.305647 0.63636)
(0.707245 -0.306667 0.636993)
(0.707569 -0.306607 0.636661)
(0.707763 -0.308336 0.63561)
(0.708397 -0.305295 0.636371)
(0.707253 -0.306639 0.636997)
(0.707187 -0.306912 0.636939)
(0.707309 -0.306684 0.636913)
(0.707096 -0.307721 0.63665)
(0.707046 -0.307889 0.636624)
(0.706795 -0.30696 0.637351)
(0.707549 -0.306945 0.636521)
(0.707454 -0.307141 0.636532)
(0.707344 -0.306662 0.636885)
(0.707497 -0.306818 0.636641)
(0.70741 -0.306993 0.636653)
(0.707439 -0.306767 0.636729)
(0.707156 -0.3069 0.63698)
(0.707438 -0.306888 0.636672)
(0.707389 -0.307097 0.636625)
(0.70731 -0.307117 0.636704)
(0.70756 -0.306823 0.636568)
(0.707533 -0.306717 0.636649)
(0.707365 -0.30674 0.636825)
(0.707485 -0.307023 0.636554)
(0.707264 -0.306944 0.636838)
(0.707529 -0.306976 0.636528)
(0.707489 -0.306871 0.636624)
(0.70733 -0.307047 0.636715)
(0.707203 -0.307002 0.636878)
(0.707421 -0.306883 0.636694)
(0.707345 -0.306853 0.636792)
(0.707401 -0.30679 0.636761)
(0.707388 -0.307056 0.636646)
(0.707337 -0.306774 0.636839)
(0.707344 -0.30683 0.636805)
(0.707414 -0.306798 0.636742)
(0.707329 -0.306954 0.636762)
(0.707317 -0.307105 0.636702)
(0.707314 -0.307102 0.636707)
(0.707505 -0.307018 0.636535)
(0.707216 -0.306892 0.636916)
(0.707227 -0.306764 0.636966)
(0.707468 -0.307135 0.636519)
(0.707153 -0.306974 0.636948)
(0.707348 -0.306823 0.636803)
(0.707365 -0.306748 0.63682)
(0.707534 -0.30691 0.636554)
(0.707064 -0.307061 0.637004)
(0.707022 -0.307146 0.637009)
(0.707225 -0.306681 0.637008)
(0.7071 -0.306883 0.63705)
(0.70724 -0.306697 0.636984)
(0.707276 -0.307283 0.636662)
(0.707219 -0.307489 0.636625)
(0.707362 -0.307386 0.636517)
(0.707734 -0.305625 0.63695)
(0.7074 -0.306817 0.636749)
(0.707524 -0.306699 0.636667)
(0.707205 -0.306978 0.636888)
(0.707108 -0.307176 0.636899)
(0.707075 -0.306779 0.637128)
(0.707384 -0.307212 0.636575)
(0.707298 -0.306712 0.636912)
(0.707277 -0.307535 0.636539)
(0.707155 -0.307095 0.636886)
(0.707558 -0.306819 0.636571)
(0.707421 -0.307042 0.636616)
(0.706787 -0.307295 0.637198)
(0.707397 -0.306313 0.636995)
(0.707378 -0.307056 0.636657)
(0.707279 -0.306933 0.636827)
(0.707 -0.306641 0.637277)
(0.707468 -0.30675 0.636705)
(0.707297 -0.306881 0.636833)
(0.707342 -0.3071 0.636677)
(0.707387 -0.306822 0.63676)
(0.707551 -0.306929 0.636526)
(0.707231 -0.306679 0.637002)
(0.707426 -0.306837 0.63671)
(0.707314 -0.306852 0.636827)
(0.70735 -0.306954 0.636738)
(0.70737 -0.306951 0.636717)
)

// normal volume types

146
(
0
0
0
0
0
0
0
0
0
0
0
0
0
0
0
0
0
0
0
0
0
0
0
0
0
0
0
0
0
0
0
0
0
0
0
0
0
0
0
0
0
0
0
0
0
0
0
0
0
0
0
0
0
0
0
0
0
0
0
0
0
0
0
0
0
0
0
0
0
0
0
0
0
0
0
0
0
0
0
0
0
0
0
0
0
0
0
0
0
0
0
0
0
0
0
0
0
0
0
0
0
0
0
0
0
0
0
0
0
0
0
0
0
0
0
0
0
0
0
0
0
0
0
0
0
0
0
0
0
0
0
0
0
0
0
0
0
0
0
0
0
0
0
0
0
0
)

// normalDirections

256
(
2(1 -1)
2(1 -1)
2(1 -1)
2(1 -1)
2(1 -1)
2(1 -1)
2(1 -1)
2(1 -1)
2(1 -1)
2(1 -1)
2(1 -1)
2(1 -1)
2(1 -1)
2(1 -1)
2(1 -1)
2(1 -1)
2(1 -1)
2(1 -1)
2(1 -1)
2(1 -1)
2(1 -1)
2(1 -1)
2(1 -1)
2(1 -1)
2(1 -1)
2(1 -1)
2(1 -1)
2(1 -1)
2(1 -1)
2(1 -1)
2(1 -1)
2(1 -1)
2(1 -1)
2(1 -1)
2(1 -1)
2(1 -1)
2(1 -1)
2(1 -1)
2(1 -1)
2(1 -1)
2(1 -1)
2(1 -1)
2(1 -1)
2(1 -1)
2(1 -1)
2(1 -1)
2(1 -1)
2(1 -1)
2(1 -1)
2(1 -1)
2(1 -1)
2(1 -1)
2(1 -1)
2(1 -1)
2(1 -1)
2(1 -1)
2(1 -1)
2(1 -1)
2(1 -1)
2(1 -1)
2(1 -1)
2(1 -1)
2(1 -1)
2(1 -1)
2(1 -1)
2(1 -1)
2(1 -1)
2(1 -1)
2(1 -1)
2(1 -1)
2(1 -1)
2(1 -1)
2(1 -1)
2(1 -1)
2(1 -1)
2(1 -1)
2(1 -1)
2(1 -1)
2(1 -1)
2(1 -1)
2(1 -1)
2(1 -1)
2(1 -1)
2(1 -1)
2(1 -1)
2(1 -1)
2(1 -1)
2(1 -1)
2(1 -1)
2(1 -1)
2(1 -1)
2(1 -1)
2(1 -1)
2(1 -1)
2(1 -1)
2(1 -1)
2(1 -1)
2(1 -1)
2(1 -1)
2(1 -1)
2(1 -1)
2(1 -1)
2(1 -1)
2(1 -1)
2(1 -1)
2(1 -1)
2(1 -1)
2(1 -1)
2(1 -1)
2(1 -1)
2(1 -1)
2(1 -1)
2(1 -1)
2(1 -1)
2(1 -1)
2(1 -1)
2(1 -1)
2(1 -1)
2(1 -1)
2(1 -1)
2(1 -1)
2(1 -1)
2(1 -1)
2(1 -1)
2(1 -1)
2(1 -1)
2(1 -1)
2(1 -1)
2(1 -1)
2(1 -1)
2(1 -1)
2(1 -1)
2(1 -1)
2(1 -1)
2(1 -1)
2(1 -1)
2(1 -1)
2(1 -1)
2(1 -1)
2(1 -1)
2(1 -1)
2(1 -1)
2(1 -1)
2(1 -1)
2(1 -1)
2(1 -1)
2(1 -1)
2(1 -1)
2(1 -1)
2(1 -1)
2(1 -1)
2(1 -1)
2(1 -1)
2(1 -1)
2(1 -1)
2(1 -1)
2(1 -1)
2(1 -1)
2(1 -1)
2(1 -1)
2(1 -1)
2(1 -1)
2(1 -1)
2(1 -1)
2(1 -1)
2(1 -1)
2(1 -1)
2(1 -1)
2(1 -1)
2(1 -1)
2(1 -1)
2(1 -1)
2(1 -1)
2(1 -1)
2(1 -1)
2(1 -1)
2(1 -1)
2(1 -1)
2(1 -1)
2(1 -1)
2(1 -1)
2(1 -1)
1(1)
1(1)
1(1)
1(1)
1(1)
1(1)
1(1)
1(1)
1(1)
1(1)
1(1)
1(1)
1(1)
1(1)
1(1)
1(1)
1(1)
1(1)
1(1)
1(1)
1(1)
1(1)
1(1)
1(1)
1(1)
1(1)
1(1)
1(1)
1(1)
1(1)
1(1)
1(1)
1(1)
1(1)
1(1)
1(1)
1(1)
1(1)
1(1)
1(1)
1(1)
1(1)
1(1)
1(1)
1(1)
1(1)
1(1)
1(1)
1(1)
1(1)
1(1)
1(1)
1(1)
1(1)
1(1)
1(1)
1(1)
1(1)
1(1)
1(1)
1(1)
1(1)
1(1)
1(1)
1(1)
1(1)
1(1)
1(1)
1(1)
1(1)
1(1)
1(1)
1(1)
1(1)
)

// edgeNormals

256
(
2(117 119)
2(11 66)
2(12 118)
2(31 131)
2(37 38)
2(39 62)
2(52 132)
2(7 72)
2(13 63)
2(119 66)
2(39 135)
2(74 75)
2(74 76)
2(77 78)
2(77 79)
2(80 81)
2(82 83)
2(82 84)
2(85 86)
2(87 88)
2(87 89)
2(90 91)
2(92 79)
2(93 94)
2(95 96)
2(95 97)
2(94 98)
2(99 100)
2(101 102)
2(101 103)
2(104 105)
2(104 106)
2(104 107)
2(105 76)
2(108 109)
2(108 110)
2(108 111)
2(110 89)
2(88 112)
2(88 113)
2(114 115)
2(114 116)
2(117 118)
2(120 0)
2(121 25)
2(122 78)
2(1 10)
2(2 4)
2(123 102)
2(123 124)
2(3 44)
2(125 116)
2(5 22)
2(6 23)
2(6 59)
2(7 126)
2(91 26)
2(13 65)
2(14 47)
2(127 128)
2(128 86)
2(15 16)
2(119 67)
2(17 124)
2(115 70)
2(19 21)
2(129 50)
2(129 84)
2(20 126)
2(21 28)
2(25 27)
2(30 130)
2(32 34)
2(33 62)
2(35 54)
2(36 132)
2(133 134)
2(133 130)
2(135 83)
2(40 42)
2(41 48)
2(136 137)
2(134 137)
2(45 138)
2(131 55)
2(46 49)
2(46 61)
2(102 139)
2(140 51)
2(140 54)
2(56 58)
2(60 141)
2(63 139)
2(64 139)
2(68 71)
2(72 73)
2(74 128)
2(77 134)
2(80 47)
2(80 61)
2(82 97)
2(85 121)
2(85 142)
2(87 90)
2(90 105)
2(143 122)
2(143 76)
2(143 89)
2(92 96)
2(92 122)
2(93 144)
2(93 79)
2(95 94)
2(96 110)
2(99 114)
2(99 103)
2(101 144)
2(75 106)
2(75 132)
2(98 123)
2(98 84)
2(109 81)
2(109 97)
2(144 100)
2(117 103)
2(120 142)
2(120 59)
2(0 4)
2(121 23)
2(1 118)
2(2 24)
2(3 112)
2(125 71)
2(125 73)
2(5 112)
2(78 86)
2(91 56)
2(8 9)
2(8 51)
2(9 52)
2(10 69)
2(11 65)
2(12 67)
2(14 45)
2(127 145)
2(127 131)
2(142 133)
2(15 124)
2(16 64)
2(17 18)
2(115 69)
2(18 19)
2(129 28)
2(20 48)
2(22 58)
2(24 130)
2(113 111)
2(113 141)
2(26 32)
2(27 31)
2(29 34)
2(29 107)
2(30 41)
2(145 37)
2(145 57)
2(33 50)
2(35 107)
2(36 53)
2(38 53)
2(135 49)
2(40 141)
2(136 116)
2(136 126)
2(111 138)
2(42 43)
2(43 138)
2(44 60)
2(100 137)
2(106 140)
2(83 81)
2(55 57)
2(68 70)
1(0)
1(1)
1(2)
1(3)
1(4)
1(5)
1(6)
1(7)
1(8)
1(9)
1(10)
1(11)
1(12)
1(13)
1(14)
1(15)
1(16)
1(17)
1(18)
1(19)
1(20)
1(21)
1(22)
1(23)
1(24)
1(25)
1(26)
1(27)
1(28)
1(29)
1(30)
1(31)
1(32)
1(33)
1(34)
1(35)
1(36)
1(37)
1(38)
1(39)
1(40)
1(41)
1(42)
1(43)
1(44)
1(45)
1(46)
1(47)
1(48)
1(49)
1(50)
1(51)
1(52)
1(53)
1(54)
1(55)
1(56)
1(57)
1(58)
1(59)
1(60)
1(61)
1(62)
1(63)
1(64)
1(65)
1(66)
1(67)
1(68)
1(69)
1(70)
1(71)
1(72)
1(73)
)

// featurePointNormals

111
(
2(37 38)
1(74)
1(74)
1(77)
1(77)
1(77)
1(80)
1(80)
1(80)
1(82)
1(82)
2(39 62)
2(31 131)
1(6)
1(87)
1(87)
1(87)
1(90)
1(110)
1(92)
1(93)
1(95)
1(99)
1(99)
1(114)
2(117 119)
1(104)
2(52 132)
1(123)
1(88)
1(114)
2(117 119)
1(120)
1(120)
1(0)
1(121)
1(1)
2(12 118)
1(2)
1(2)
1(123)
1(3)
1(3)
2(7 72)
1(125)
1(5)
1(6)
1(6)
1(7)
2(7 72)
1(91)
1(8)
1(8)
1(9)
1(10)
2(11 66)
1(11)
1(12)
1(13)
2(13 63)
1(14)
1(14)
1(131)
1(15)
1(17)
2(119 66)
1(16)
1(17)
1(115)
1(18)
1(19)
1(129)
1(20)
1(20)
1(21)
1(22)
1(30)
1(25)
1(40)
1(26)
1(27)
1(29)
1(29)
1(30)
2(31 131)
1(145)
1(32)
1(33)
1(33)
1(35)
2(52 132)
1(36)
2(37 38)
1(38)
2(39 62)
2(39 135)
1(40)
1(60)
1(41)
1(42)
1(45)
1(44)
1(46)
1(46)
1(140)
1(55)
1(56)
1(63)
1(68)
1(68)
1(72)
)

// featurePointEdges

111
(
10(11 118 75 167 168 4 163 144 59 96)
7(12 106 105 45 135 60 96)
6(11 117 31 30 33 12)
7(13 135 18 102 146 76 97)
7(97 82 177 123 110 111 14)
5(13 45 109 22 14)
4(98 99 229 243)
9(98 58 143 83 173 36 34 121 15)
7(15 179 78 169 85 86 99)
5(16 179 121 122 100)
6(17 120 26 112 25 100)
9(16 78 10 5 73 165 66 67 17)
9(101 44 70 159 3 145 59 60 18)
7(101 128 53 54 126 125 102)
6(103 104 33 106 107 20)
7(19 39 156 36 35 37 20)
9(103 21 136 90 154 52 134 38 19)
9(104 30 32 161 160 72 158 56 21)
6(105 109 108 113 37 107)
6(108 24 112 23 111 22)
7(23 26 119 48 28 116 110)
6(24 113 35 34 122 25)
5(27 123 116 29 115)
6(114 41 171 81 177 27)
9(114 40 150 140 46 129 42 124 115)

11
(
28
87
92
8
57
141
1
9
0
124
29
)

6(31 178 89 74 166 32)
8(117 178 88 138 137 139 6 118)
10(119 49 63 149 151 65 69 152 67 120)
7(38 131 50 176 91 157 39)
7(40 64 181 94 132 51 41)
5(42 2 142 62 0)
4(43 126 182 241)
8(43 127 47 130 155 77 146 125)
3(127 182 186)
4(128 44 205 207)
3(46 183 192)
4(129 2 183 194)
3(47 184 186)
3(130 184 206)
7(48 87 93 148 61 147 49)
4(131 134 185 187)
3(50 185 226)
7(51 171 172 55 7 95 133)
4(132 133 253 255)
3(52 187 204)
3(53 188 205)
3(54 188 241)
4(55 68 189 202)
3(7 189 254)
4(56 136 208 238)
3(138 190 233)
3(137 190 191)
3(139 191 234)
3(140 192 251)
3(1 193 248)
3(141 193 247)
3(142 194 249)
3(57 195 247)
3(8 195 245)
3(58 196 229)
3(143 196 227)
5(144 164 180 84 145)
3(61 197 198)
4(147 63 197 199)
4(9 62 248 249)
3(148 198 246)
3(149 199 200)
4(150 64 251 252)
3(151 200 201)
3(65 201 203)
4(152 66 210 232)
3(153 202 230)
10(153 80 162 71 77 76 82 81 172 68)
3(69 203 210)
3(154 204 240)
4(155 71 206 212)
3(70 207 209)
7(156 173 175 174 79 170 157)
3(158 208 214)
3(159 209 213)
3(160 211 216)
4(161 166 211 217)
3(162 212 223)
4(3 84 213 237)
4(163 164 219 239)
3(72 214 216)
3(165 215 232)
3(73 215 244)
3(74 217 236)
4(75 6 218 234)
3(167 218 235)
3(4 219 220)
3(168 220 235)
3(5 221 244)
4(10 169 221 231)
3(79 222 224)
4(170 91 222 242)
3(80 223 230)
3(174 224 225)
4(175 83 225 227)
3(176 226 242)
3(85 228 231)
3(86 228 243)
4(88 89 233 236)
3(180 237 239)
3(90 238 240)
4(92 93 245 246)
3(94 250 253)
3(181 250 252)
3(95 254 255)
)

// regionEdges

74
(
182
183
184
185
186
187
188
189
190
191
192
193
194
195
196
197
198
199
200
201
202
203
204
205
206
207
208
209
210
211
212
213
214
215
216
217
218
219
220
221
222
223
224
225
226
227
228
229
230
231
232
233
234
235
236
237
238
239
240
241
242
243
244
245
246
247
248
249
250
251
252
253
254
255
)



// ************************************************************************* //
