/*--------------------------------*- C++ -*----------------------------------*\
  =========                 |
  \\      /  F ield         | OpenFOAM: The Open Source CFD Toolbox
   \\    /   O peration     | Website:  https://openfoam.org
    \\  /    A nd           | Version:  6
     \\/     M anipulation  |
\*---------------------------------------------------------------------------*/
FoamFile
{
    version     2.0;
    format      ascii;
    class       extendedFeatureEdgeMesh;
    location    "constant/extendedFeatureEdgeMesh";
    object      outlet3.extendedFeatureEdgeMesh;
}
// * * * * * * * * * * * * * * * * * * * * * * * * * * * * * * * * * * * * * //

// points

74
(
(1.29638 184.163 -59.8837)
(1.38688 184.359 -59.8898)
(1.44389 187.102 -58.6308)
(1.36454 187.214 -58.4886)
(1.46952 184.567 -59.8811)
(1.53995 184.772 -59.8607)
(-1.60059 183.97 -56.7584)
(-1.57793 183.798 -56.8666)
(-1.54727 183.64 -56.9766)
(1.07237 183.77 -59.824)
(1.18387 183.953 -59.8596)
(1.72308 185.854 -59.5425)
(1.72087 186.034 -59.4535)
(-0.729743 182.565 -58.4031)
(-0.6213 182.546 -58.5328)
(-0.502406 182.544 -58.6658)
(1.50865 186.983 -58.7602)
(1.09123 187.468 -58.0624)
(0.975762 187.53 -57.9045)
(1.27872 187.313 -58.3459)
(0.849867 187.569 -57.7458)
(0.711127 187.588 -57.5827)
(-1.41543 185.496 -56.2283)
(-1.4897 185.245 -56.267)
(0.308616 187.532 -57.1623)
(0.173558 187.477 -57.039)
(0.446776 187.57 -57.2975)
(0.0318367 187.405 -56.9164)
(-0.118756 187.314 -56.7929)
(-0.267398 187.208 -56.6786)
(1.71316 185.66 -59.6252)
(-0.413793 187.085 -56.5752)
(-1.50397 183.473 -57.1052)
(0.942099 183.577 -59.7724)
(1.60434 184.999 -59.8229)
(0.816016 183.414 -59.7109)
(-1.39987 183.205 -57.3501)
(-1.33365 183.079 -57.4845)
(0.681291 183.258 -59.6367)
(-0.557047 186.947 -56.4827)
(-1.16906 182.847 -57.779)
(-1.06095 182.744 -57.9488)
(1.65259 185.226 -59.7671)
(0.54643 183.116 -59.555)
(-1.25925 182.96 -57.6242)
(-0.689407 186.805 -56.4043)
(-0.811571 186.657 -56.3397)
(-0.94815 182.663 -58.113)
(-0.366337 182.561 -58.8084)
(-0.214063 182.602 -58.9582)
(0.11875 182.769 -59.2472)
(0.268968 182.876 -59.3628)
(-0.0453382 182.674 -59.111)
(-0.933994 186.489 -56.2845)
(-1.03664 186.33 -56.2476)
(-1.60413 184.568 -56.4662)
(-1.61468 184.349 -56.5602)
(1.68991 185.454 -59.6984)
(-1.5778 184.792 -56.3876)
(-1.54036 185.018 -56.3202)
(-1.61305 184.152 -56.657)
(-1.13975 186.151 -56.2192)
(-1.24198 185.946 -56.2044)
(-1.33454 185.726 -56.2077)
(-0.840115 182.603 -58.262)
(0.414733 182.994 -59.4678)
(-1.45407 183.329 -57.2299)
(0.580061 187.587 -57.4373)
(1.19163 187.394 -58.2101)
(1.66348 186.537 -59.1469)
(1.62026 186.692 -59.0243)
(1.56551 186.849 -58.8879)
(1.69472 186.369 -59.2628)
(1.71109 186.203 -59.3609)
)

// edges

74
(
(0 1)
(2 3)
(4 5)
(6 7)
(1 4)
(7 8)
(9 10)
(11 12)
(13 14)
(14 15)
(16 2)
(17 18)
(3 19)
(20 21)
(22 23)
(24 25)
(26 24)
(25 27)
(27 28)
(28 29)
(30 11)
(29 31)
(8 32)
(33 9)
(5 34)
(35 33)
(36 37)
(38 35)
(31 39)
(40 41)
(34 42)
(43 38)
(37 44)
(45 46)
(44 40)
(41 47)
(48 49)
(50 51)
(52 50)
(53 54)
(55 56)
(42 57)
(58 55)
(59 58)
(60 6)
(23 59)
(61 62)
(63 22)
(57 30)
(54 61)
(39 45)
(64 13)
(15 48)
(49 52)
(47 64)
(65 43)
(66 36)
(51 65)
(32 66)
(10 0)
(56 60)
(62 63)
(46 53)
(21 67)
(67 26)
(18 20)
(68 17)
(19 68)
(69 70)
(71 16)
(70 71)
(72 69)
(12 73)
(73 72)
)

// concaveStart mixedStart nonFeatureStart
0 0 0
// internalStart flatStart openStart multipleStart
0 0 0 74
// normals

74
(
(0.707401 -0.306817 0.636747)
(0.707177 -0.307375 0.636727)
(0.707077 -0.306347 0.637333)
(0.707411 -0.307233 0.636535)
(0.706756 -0.307442 0.637162)
(0.707394 -0.306231 0.637038)
(0.707002 -0.30682 0.637189)
(0.707775 -0.306121 0.636666)
(0.707472 -0.307143 0.636511)
(0.707201 -0.307138 0.636814)
(0.70722 -0.307427 0.636654)
(0.707064 -0.306365 0.637339)
(0.707968 -0.304678 0.637144)
(0.707026 -0.306824 0.63716)
(0.707288 -0.307425 0.63658)
(0.706817 -0.307152 0.637235)
(0.707469 -0.306684 0.636736)
(0.707055 -0.306758 0.63716)
(0.707523 -0.306957 0.636544)
(0.707965 -0.306848 0.636105)
(0.707617 -0.307396 0.636228)
(0.707579 -0.307254 0.636339)
(0.707315 -0.306974 0.636768)
(0.706992 -0.306828 0.637196)
(0.707156 -0.306689 0.637081)
(0.70745 -0.30705 0.63658)
(0.70724 -0.307383 0.636654)
(0.70708 -0.307842 0.636609)
(0.707355 -0.307754 0.636346)
(0.707536 -0.306823 0.636594)
(0.707589 -0.306855 0.63652)
(0.708175 -0.306682 0.635952)
(0.707295 -0.305949 0.637282)
(0.707776 -0.306382 0.63654)
(0.707728 -0.30687 0.636358)
(0.707126 -0.306725 0.637097)
(0.708147 -0.307047 0.635806)
(0.707866 -0.305907 0.636668)
(0.706794 -0.307223 0.637225)
(0.706817 -0.308585 0.636541)
(0.707704 -0.307182 0.636235)
(0.707158 -0.307593 0.636643)
(0.7077 -0.306533 0.636552)
(0.707392 -0.307053 0.636643)
(0.706975 -0.30667 0.637291)
(0.70734 -0.307096 0.63668)
(0.707282 -0.30672 0.636926)
(0.708193 -0.306056 0.636233)
(0.707532 -0.306164 0.636916)
(0.707495 -0.306505 0.636793)
(0.706705 -0.306682 0.637585)
(0.707602 -0.307339 0.636272)
(0.706419 -0.307779 0.637373)
(0.707483 -0.306891 0.63662)
(0.707498 -0.306952 0.636574)
(0.706734 -0.307517 0.63715)
(0.708079 -0.306961 0.635924)
(0.707228 -0.306929 0.636885)
(0.707135 -0.306655 0.637121)
(0.707404 -0.305884 0.637192)
(0.706901 -0.307206 0.637115)
(0.707233 -0.307102 0.636796)
(0.70765 -0.3065 0.636623)
(0.708255 -0.305647 0.63636)
(0.707245 -0.306667 0.636993)
(0.707569 -0.306607 0.636661)
(0.707763 -0.308336 0.63561)
(0.708397 -0.305295 0.636371)
(0.707253 -0.306639 0.636997)
(0.707187 -0.306912 0.636939)
(0.707309 -0.306684 0.636913)
(0.707096 -0.307721 0.63665)
(0.707046 -0.307889 0.636624)
(0.706795 -0.30696 0.637351)
)

// normal volume types

74
(
0
0
0
0
0
0
0
0
0
0
0
0
0
0
0
0
0
0
0
0
0
0
0
0
0
0
0
0
0
0
0
0
0
0
0
0
0
0
0
0
0
0
0
0
0
0
0
0
0
0
0
0
0
0
0
0
0
0
0
0
0
0
0
0
0
0
0
0
0
0
0
0
0
0
)

// normalDirections

74
(
1(1)
1(1)
1(1)
1(1)
1(1)
1(1)
1(1)
1(1)
1(1)
1(1)
1(1)
1(1)
1(1)
1(1)
1(1)
1(1)
1(1)
1(1)
1(1)
1(1)
1(1)
1(1)
1(1)
1(1)
1(1)
1(1)
1(1)
1(1)
1(1)
1(1)
1(1)
1(1)
1(1)
1(1)
1(1)
1(1)
1(1)
1(1)
1(1)
1(1)
1(1)
1(1)
1(1)
1(1)
1(1)
1(1)
1(1)
1(1)
1(1)
1(1)
1(1)
1(1)
1(1)
1(1)
1(1)
1(1)
1(1)
1(1)
1(1)
1(1)
1(1)
1(1)
1(1)
1(1)
1(1)
1(1)
1(1)
1(1)
1(1)
1(1)
1(1)
1(1)
1(1)
1(1)
)

// edgeNormals

74
(
1(0)
1(1)
1(2)
1(3)
1(4)
1(5)
1(6)
1(7)
1(8)
1(9)
1(10)
1(11)
1(12)
1(13)
1(14)
1(15)
1(16)
1(17)
1(18)
1(19)
1(20)
1(21)
1(22)
1(23)
1(24)
1(25)
1(26)
1(27)
1(28)
1(29)
1(30)
1(31)
1(32)
1(33)
1(34)
1(35)
1(36)
1(37)
1(38)
1(39)
1(40)
1(41)
1(42)
1(43)
1(44)
1(45)
1(46)
1(47)
1(48)
1(49)
1(50)
1(51)
1(52)
1(53)
1(54)
1(55)
1(56)
1(57)
1(58)
1(59)
1(60)
1(61)
1(62)
1(63)
1(64)
1(65)
1(66)
1(67)
1(68)
1(69)
1(70)
1(71)
1(72)
1(73)
)

// featurePointNormals
0()
// featurePointEdges
0()
// regionEdges

74
(
0
1
2
3
4
5
6
7
8
9
10
11
12
13
14
15
16
17
18
19
20
21
22
23
24
25
26
27
28
29
30
31
32
33
34
35
36
37
38
39
40
41
42
43
44
45
46
47
48
49
50
51
52
53
54
55
56
57
58
59
60
61
62
63
64
65
66
67
68
69
70
71
72
73
)



// ************************************************************************* //
