/*--------------------------------*- C++ -*----------------------------------*\
  =========                 |
  \\      /  F ield         | OpenFOAM: The Open Source CFD Toolbox
   \\    /   O peration     | Website:  https://openfoam.org
    \\  /    A nd           | Version:  6
     \\/     M anipulation  |
\*---------------------------------------------------------------------------*/
FoamFile
{
    version     2.0;
    format      ascii;
    class       extendedFeatureEdgeMesh;
    location    "constant/extendedFeatureEdgeMesh";
    object      outlet4.extendedFeatureEdgeMesh;
}
// * * * * * * * * * * * * * * * * * * * * * * * * * * * * * * * * * * * * * //

// points

208
(
(1.31194 188.592 -163.172)
(0.684344 188.439 -163.123)
(0.854301 189.208 -163.306)
(-1.68362 193.252 -164.189)
(-2.29071 193.516 -164.237)
(-1.86547 193.767 -164.305)
(-2.34443 192.891 -164.091)
(-0.849149 191.908 -163.896)
(-1.79625 192.214 -163.946)
(-0.927041 192.767 -164.093)
(-2.55032 192.292 -163.947)
(-0.625787 193.28 -164.219)
(-1.13775 193.424 -164.242)
(-0.108967 192.304 -164.004)
(-3.78629 191.236 -163.674)
(-2.99462 191.314 -163.71)
(-3.28214 190.607 -163.539)
(-1.90193 190.452 -163.534)
(-1.76757 189.594 -163.337)
(-2.66484 190.049 -163.423)
(-3.54596 189.862 -163.36)
(-3.03278 189.459 -163.278)
(-2.01275 188.722 -163.129)
(-2.48595 189.346 -163.263)
(-5.07227 189.397 -163.218)
(-4.51943 188.996 -163.137)
(-5.29094 188.571 -163.021)
(-5.64921 189.22 -163.164)
(-3.37805 188.404 -163.025)
(-2.9115 188.873 -163.144)
(-2.77147 188.122 -162.973)
(-2.76022 186.524 -162.601)
(-2.76147 187.329 -162.788)
(-1.97053 186.885 -162.703)
(-1.15424 190.394 -163.537)
(-3.25481 191.983 -163.86)
(-2.50669 191.687 -163.807)
(-4.19172 190.404 -163.472)
(-2.94214 192.648 -164.021)
(-3.52861 192.64 -164.006)
(-2.20901 186.367 -162.577)
(-4.27186 189.633 -163.291)
(-3.74725 189.075 -163.172)
(-2.52645 190.857 -163.614)
(-5.71583 190.55 -163.472)
(-5.0709 190.58 -163.493)
(-5.64991 189.866 -163.314)
(-0.210709 192.963 -164.155)
(-0.266869 193.332 -164.24)
(-4.87333 189.949 -163.351)
(-0.103031 188.261 -163.064)
(0.205457 188.868 -163.212)
(-3.03727 193.304 -164.171)
(0.0160452 189.501 -163.355)
(-4.20538 188.219 -162.963)
(-3.51548 187.715 -162.861)
(1.05608 188.031 -163.036)
(1.25024 187.909 -163.012)
(1.1358 187.74 -162.97)
(-4.64295 191.292 -163.668)
(0.876914 192.453 -164.061)
(1.02536 192.279 -164.023)
(0.744301 192.093 -163.974)
(-1.6576 191.199 -163.713)
(0.45891 187.604 -162.924)
(1.01174 187.576 -162.93)
(-4.29654 187.343 -162.758)
(-3.52347 186.838 -162.657)
(-1.25977 187.343 -162.825)
(-0.414941 187.451 -162.869)
(-0.971654 186.68 -162.677)
(-1.12568 188.224 -163.033)
(0.339789 190.92 -163.692)
(0.704389 191.427 -163.818)
(1.22472 190.943 -163.717)
(-0.0214402 191.638 -163.851)
(-2.02194 187.744 -162.901)
(-0.529786 188.958 -163.217)
(0.358653 192.667 -164.099)
(-5.28422 187.771 -162.835)
(-5.39866 187.941 -162.872)
(-4.94293 187.839 -162.858)
(-0.558627 191.036 -163.699)
(1.21673 191.546 -163.857)
(-4.57661 187.023 -162.677)
(-4.73355 187.159 -162.705)
(1.52018 189.163 -163.31)
(1.77902 189.225 -163.33)
(1.7355 189.026 -163.283)
(1.35531 188.084 -163.055)
(-3.88204 186.571 -162.587)
(-4.06509 186.67 -162.606)
(-3.98434 186.847 -162.649)
(-3.50197 193.517 -164.211)
(-3.30583 193.585 -164.231)
(-4.24153 193.146 -164.108)
(-4.30584 192.731 -164.01)
(-4.41261 193.03 -164.077)
(-0.751109 189.631 -163.368)
(-1.26494 189.042 -163.22)
(-4.90205 192.136 -163.858)
(-4.07285 191.986 -163.842)
(-5.88408 190.878 -163.544)
(-5.82973 191.074 -163.591)
(-5.49221 191.125 -163.61)
(-5.99374 189.869 -163.307)
(-5.99354 190.073 -163.355)
(-5.98235 190.276 -163.402)
(-2.07421 193.776 -164.303)
(-1.45062 193.719 -164.303)
(-2.28255 193.77 -164.297)
(-2.49074 193.752 -164.288)
(-0.454069 193.423 -164.256)
(0.428001 192.88 -164.15)
(0.585054 192.745 -164.122)
(0.734686 192.603 -164.092)
(-1.65768 193.748 -164.305)
(-2.9028 193.689 -164.264)
(-2.69744 193.725 -164.277)
(1.1644 192.093 -163.983)
(1.2852 191.905 -163.942)
(1.40471 191.695 -163.896)
(1.50755 191.488 -163.85)
(1.73566 190.84 -163.705)
(1.49543 190.455 -163.61)
(1.84531 189.831 -163.472)
(1.83406 189.628 -163.425)
(1.50427 189.809 -163.46)
(-0.271164 190.234 -163.519)
(-5.82938 188.867 -163.078)
(-5.02611 187.45 -162.766)
(-5.16016 187.607 -162.8)
(-4.41318 186.896 -162.651)
(-3.69423 186.481 -162.57)
(-3.10583 186.271 -162.535)
(-3.30558 186.331 -162.544)
(0.0933668 186.758 -162.719)
(0.160335 187.081 -162.796)
(0.264259 186.874 -162.75)
(-2.69762 186.184 -162.524)
(-2.90266 186.223 -162.528)
(-2.25957 186.135 -162.522)
(-2.49059 186.155 -162.521)
(-1.69722 186.363 -162.587)
(-2.0272 186.129 -162.526)
(-0.267486 186.814 -162.724)
(-0.0835068 186.651 -162.69)
(-0.646252 186.387 -162.616)
(-0.453859 186.465 -162.639)
(-0.864702 186.312 -162.594)
(-1.09165 186.248 -162.574)
(-1.34631 186.195 -162.556)
(-5.15945 192.327 -163.897)
(-5.02535 192.482 -163.936)
(1.53845 188.449 -163.144)
(1.45108 188.264 -163.099)
(-5.96018 189.464 -163.214)
(-5.98249 189.666 -163.26)
(-1.58999 186.159 -162.542)
(-1.81593 186.137 -162.532)
(0.585118 187.133 -162.817)
(0.428183 186.999 -162.782)
(-0.266382 186.553 -162.663)
(1.68095 188.83 -163.236)
(1.61536 188.637 -163.19)
(-3.50217 186.401 -162.556)
(-5.25414 191.652 -163.738)
(-5.9602 190.478 -163.45)
(-5.92734 190.679 -163.497)
(-5.50335 191.819 -163.772)
(-5.39895 191.995 -163.815)
(-5.59946 191.639 -163.728)
(-5.28489 192.165 -163.857)
(-5.88392 189.064 -163.122)
(1.83392 190.237 -163.567)
(-5.5995 188.299 -162.951)
(-5.68688 188.484 -162.992)
(-5.50375 188.118 -162.911)
(-4.88306 187.301 -162.735)
(-3.69436 193.438 -164.188)
(-3.77124 193.169 -164.124)
(-3.88187 193.35 -164.164)
(-3.10559 193.642 -164.249)
(-0.0837876 193.233 -164.221)
(0.0931059 193.125 -164.199)
(-1.04242 193.632 -164.292)
(-0.8426 193.573 -164.283)
(-1.24563 193.681 -164.299)
(0.264173 193.007 -164.176)
(-0.646565 193.502 -164.271)
(-4.06465 193.253 -164.137)
(1.59868 191.273 -163.802)
(1.67468 191.058 -163.754)
(1.81175 189.426 -163.377)
(0.757732 190.138 -163.52)
(0.734637 187.274 -162.853)
(-5.76327 191.266 -163.637)
(0.877686 187.421 -162.891)
(-5.76379 188.674 -163.034)
(-4.57643 192.905 -164.045)
(-4.24179 186.779 -162.628)
(-4.73348 192.771 -164.01)
(-4.88311 192.63 -163.974)
(1.7789 190.641 -163.659)
(1.81177 190.44 -163.613)
(1.84511 190.034 -163.52)
(-5.68644 191.455 -163.683)
(-5.92745 189.263 -163.168)
)

// edges

505
(
(9 12)
(19 21)
(30 28)
(11 48)
(48 47)
(29 21)
(3 12)
(62 60)
(56 65)
(78 62)
(88 86)
(106 46)
(4 108)
(123 124)
(126 127)
(129 27)
(26 129)
(131 81)
(31 134)
(137 138)
(31 139)
(144 40)
(143 144)
(70 148)
(46 156)
(145 148)
(137 160)
(164 0)
(165 67)
(44 167)
(100 172)
(124 174)
(176 26)
(180 181)
(93 180)
(182 52)
(47 183)
(186 12)
(12 187)
(188 47)
(189 11)
(86 127)
(104 171)
(64 197)
(96 199)
(66 200)
(100 202)
(127 205)
(27 207)
(66 178)
(4 5)
(11 9)
(47 11)
(23 29)
(52 4)
(9 3)
(29 42)
(55 54)
(58 56)
(61 62)
(64 56)
(81 79)
(76 32)
(85 66)
(91 92)
(94 52)
(96 97)
(23 19)
(104 102)
(46 105)
(46 107)
(107 44)
(11 112)
(52 117)
(62 115)
(127 125)
(81 130)
(66 132)
(67 133)
(135 31)
(140 31)
(142 40)
(40 143)
(147 70)
(100 152)
(153 100)
(100 96)
(0 154)
(157 46)
(159 143)
(161 137)
(162 145)
(143 70)
(31 142)
(0 163)
(104 166)
(173 27)
(179 180)
(184 47)
(11 186)
(193 86)
(127 193)
(64 195)
(196 104)
(198 26)
(92 66)
(100 166)
(96 201)
(124 203)
(204 124)
(1 2)
(5 3)
(6 4)
(3 6)
(7 8)
(6 8)
(8 10)
(13 7)
(15 16)
(17 18)
(18 19)
(19 17)
(21 20)
(18 22)
(26 24)
(25 26)
(27 24)
(28 29)
(33 31)
(32 33)
(17 34)
(34 18)
(15 35)
(37 16)
(38 6)
(35 39)
(38 35)
(40 31)
(33 40)
(41 20)
(42 41)
(15 43)
(41 37)
(46 44)
(44 45)
(37 49)
(49 45)
(21 23)
(6 52)
(49 24)
(46 49)
(47 9)
(42 21)
(24 41)
(41 25)
(2 51)
(53 2)
(54 28)
(35 10)
(56 57)
(14 37)
(37 59)
(63 34)
(17 63)
(65 64)
(28 42)
(30 32)
(55 30)
(66 55)
(67 66)
(68 69)
(54 25)
(69 71)
(73 74)
(62 73)
(75 62)
(71 68)
(77 50)
(71 77)
(13 78)
(64 1)
(30 76)
(75 72)
(75 7)
(31 67)
(66 84)
(51 77)
(77 53)
(86 87)
(30 22)
(56 89)
(41 49)
(92 90)
(52 93)
(95 96)
(98 77)
(77 99)
(101 59)
(103 104)
(71 22)
(22 99)
(104 44)
(44 102)
(109 12)
(110 4)
(114 78)
(118 52)
(13 47)
(120 62)
(62 119)
(83 121)
(62 83)
(74 123)
(98 34)
(34 128)
(54 66)
(90 67)
(40 141)
(145 136)
(149 70)
(151 70)
(35 101)
(96 101)
(99 18)
(143 151)
(145 137)
(45 59)
(63 43)
(166 59)
(69 137)
(33 76)
(68 33)
(27 156)
(166 169)
(166 171)
(63 8)
(7 63)
(174 127)
(3 8)
(26 175)
(177 26)
(81 178)
(128 194)
(39 180)
(78 188)
(2 86)
(180 96)
(137 64)
(202 96)
(194 2)
(124 194)
(82 7)
(82 34)
(72 194)
(14 35)
(206 104)
(29 22)
(43 17)
(54 26)
(70 33)
(2 127)
(92 200)
(0 1)
(2 0)
(3 4)
(9 7)
(8 9)
(10 6)
(12 11)
(9 13)
(16 14)
(14 15)
(20 19)
(23 18)
(22 23)
(24 25)
(26 27)
(29 30)
(31 32)
(35 36)
(36 15)
(20 37)
(16 20)
(10 38)
(39 38)
(20 42)
(43 16)
(45 46)
(45 37)
(51 1)
(50 51)
(1 50)
(39 52)
(52 38)
(24 46)
(27 46)
(51 53)
(28 55)
(10 36)
(59 14)
(32 55)
(55 67)
(69 70)
(70 68)
(25 42)
(42 54)
(71 50)
(50 69)
(72 73)
(74 72)
(73 75)
(76 71)
(68 76)
(50 64)
(64 69)
(62 13)
(1 56)
(80 81)
(72 82)
(82 75)
(73 83)
(83 74)
(13 75)
(67 32)
(22 76)
(0 56)
(99 98)
(100 101)
(59 100)
(19 16)
(43 19)
(99 71)
(3 109)
(4 111)
(78 113)
(115 78)
(3 116)
(47 78)
(122 83)
(124 74)
(36 43)
(128 98)
(81 54)
(66 81)
(80 26)
(26 81)
(136 137)
(146 145)
(70 150)
(101 39)
(18 98)
(155 0)
(120 83)
(92 67)
(158 143)
(70 145)
(36 63)
(67 135)
(59 104)
(104 45)
(145 69)
(168 44)
(170 166)
(96 39)
(72 128)
(128 82)
(0 89)
(127 124)
(118 4)
(12 185)
(190 180)
(180 95)
(192 74)
(74 191)
(53 128)
(194 53)
(160 64)
(180 52)
(0 86)
(86 163)
(170 100)
(53 98)
(191 83)
(8 36)
(194 74)
(63 82)
(127 194)
(14 101)
(143 33)
(57 58)
(60 61)
(79 80)
(84 85)
(87 88)
(58 65)
(89 57)
(90 91)
(93 94)
(97 95)
(102 103)
(105 106)
(108 5)
(111 110)
(112 48)
(113 114)
(114 115)
(116 109)
(117 118)
(115 60)
(119 120)
(121 122)
(125 126)
(130 131)
(132 84)
(133 90)
(134 135)
(138 136)
(139 140)
(141 142)
(136 146)
(148 147)
(147 149)
(150 151)
(152 153)
(154 155)
(156 157)
(151 158)
(158 159)
(149 150)
(160 161)
(146 162)
(161 138)
(162 148)
(144 141)
(142 139)
(140 134)
(163 164)
(159 144)
(135 165)
(167 168)
(106 107)
(169 170)
(171 169)
(172 152)
(129 173)
(175 176)
(80 177)
(178 130)
(181 179)
(179 93)
(94 182)
(182 117)
(118 111)
(183 184)
(185 186)
(187 185)
(184 188)
(186 189)
(189 112)
(110 108)
(109 187)
(5 116)
(95 190)
(168 102)
(191 192)
(164 154)
(195 160)
(103 196)
(197 195)
(65 197)
(188 113)
(176 198)
(190 181)
(199 97)
(200 132)
(201 199)
(61 119)
(48 183)
(88 163)
(120 121)
(192 123)
(203 204)
(122 191)
(123 203)
(204 174)
(205 125)
(193 87)
(196 206)
(155 89)
(174 205)
(206 171)
(107 167)
(157 105)
(207 156)
(173 207)
(198 129)
(177 175)
(131 79)
(126 193)
(85 178)
(165 133)
(91 200)
(170 172)
(153 202)
(202 201)
)

// concaveStart mixedStart nonFeatureStart
0 0 208
// internalStart flatStart openStart multipleStart
50 110 389 505
// normals

298
(
(-0.0222173 -0.226898 -0.973665)
(-0.0185115 -0.22843 -0.973384)
(-0.0206281 -0.225795 -0.973956)
(-0.0226594 -0.226617 -0.97372)
(-0.0212837 -0.225375 -0.97404)
(-0.0162307 -0.225366 -0.974139)
(-0.0217639 -0.22621 -0.973835)
(-0.0215585 -0.226712 -0.973723)
(-0.020445 -0.22741 -0.973585)
(-0.0229681 -0.22641 -0.973761)
(-0.020379 -0.227777 -0.9735)
(-0.0217822 -0.22892 -0.973201)
(-0.0192728 -0.230875 -0.972793)
(-0.0222627 -0.229152 -0.973136)
(-0.0248396 -0.222363 -0.974648)
(-0.0209461 -0.226329 -0.973826)
(-0.0205685 -0.227357 -0.973594)
(-0.0223378 -0.226555 -0.973742)
(-0.0216444 -0.227609 -0.973512)
(-0.0259394 -0.225801 -0.973828)
(-0.0208716 -0.225812 -0.973947)
(-0.0219138 -0.227195 -0.973603)
(-0.01979 -0.224475 -0.974279)
(-0.0181928 -0.226415 -0.973861)
(-0.0217788 -0.227349 -0.97357)
(-0.0207977 -0.227294 -0.973604)
(-0.0229963 -0.2228 -0.974593)
(-0.0222036 -0.22751 -0.973523)
(-0.0238006 -0.224972 -0.974075)
(-0.0237858 -0.225661 -0.973915)
(-0.0218325 -0.227689 -0.973489)
(-0.0236106 -0.228844 -0.973177)
(-0.0206204 -0.225691 -0.973981)
(-0.0217971 -0.226134 -0.973852)
(-0.0208663 -0.226949 -0.973683)
(-0.0224559 -0.22626 -0.973808)
(-0.0232548 -0.224378 -0.974225)
(-0.0224312 -0.226566 -0.973738)
(-0.021145 -0.225929 -0.973914)
(-0.0220267 -0.226073 -0.973861)
(-0.0198156 -0.230898 -0.972776)
(-0.0217792 -0.227632 -0.973504)
(-0.01812 -0.225578 -0.974057)
(-0.0177196 -0.227634 -0.973586)
(-0.0225853 -0.225916 -0.973885)
(-0.0172146 -0.223849 -0.974472)
(-0.0199796 -0.226704 -0.973759)
(-0.0246287 -0.223792 -0.974326)
(-0.0190477 -0.226981 -0.973713)
(-0.0211059 -0.226109 -0.973873)
(-0.0216443 -0.224262 -0.974289)
(-0.0189957 -0.224509 -0.974287)
(-0.0190322 -0.226629 -0.973795)
(-0.019665 -0.227528 -0.973573)
(-0.0196286 -0.225362 -0.974077)
(-0.0251298 -0.2245 -0.97415)
(-0.0216351 -0.226055 -0.973874)
(-0.020583 -0.226777 -0.973729)
(-0.0235618 -0.225301 -0.974004)
(-0.0183671 -0.226486 -0.973841)
(-0.0240771 -0.224911 -0.974082)
(-0.0222436 -0.229038 -0.973163)
(-0.0191235 -0.228455 -0.973367)
(-0.0219111 -0.22887 -0.97321)
(-0.0188516 -0.229017 -0.97324)
(-0.0222545 -0.22402 -0.97433)
(-0.020677 -0.224713 -0.974206)
(-0.0224617 -0.222628 -0.974645)
(-0.0237446 -0.230111 -0.972875)
(-0.0184237 -0.229665 -0.973095)
(-0.0214137 -0.229182 -0.973148)
(-0.0228115 -0.225555 -0.973963)
(-0.0207209 -0.226644 -0.973757)
(-0.0219755 -0.227434 -0.973545)
(-0.0222828 -0.225261 -0.974044)
(-0.0224817 -0.225421 -0.974002)
(-0.023881 -0.228413 -0.973271)
(-0.0206097 -0.226719 -0.973742)
(-0.0206499 -0.226125 -0.973879)
(-0.0233607 -0.228894 -0.973171)
(-0.0220069 -0.225927 -0.973896)
(-0.0209051 -0.226342 -0.973824)
(-0.0220606 -0.224254 -0.974281)
(-0.0223815 -0.228801 -0.973216)
(-0.0186313 -0.224957 -0.97419)
(-0.0241456 -0.226752 -0.973653)
(-0.0214253 -0.229097 -0.973168)
(-0.0208754 -0.225053 -0.974123)
(-0.0219819 -0.22761 -0.973504)
(-0.0225349 -0.22725 -0.973576)
(-0.0226971 -0.226259 -0.973803)
(-0.0225367 -0.225221 -0.974047)
(-0.0199748 -0.226096 -0.9739)
(-0.0217996 -0.226639 -0.973735)
(-0.0180083 -0.228929 -0.973277)
(-0.0198363 -0.223034 -0.974609)
(-0.0193816 -0.230099 -0.972974)
(-0.0215587 -0.224305 -0.974281)
(-0.0217306 -0.228109 -0.973393)
(-0.022308 -0.226201 -0.973825)
(-0.0218047 -0.226631 -0.973737)
(-0.0214108 -0.227932 -0.973442)
(-0.0201285 -0.229073 -0.973201)
(-0.0217734 -0.226705 -0.97372)
(-0.0209809 -0.226304 -0.973831)
(-0.021509 -0.229648 -0.973036)
(-0.0232949 -0.229756 -0.97297)
(-0.0212381 -0.226482 -0.973784)
(-0.0210382 -0.223883 -0.974389)
(-0.02228 -0.228806 -0.973217)
(-0.0217887 -0.228559 -0.973286)
(-0.0231978 -0.226195 -0.973806)
(-0.019255 -0.227718 -0.973537)
(-0.0197696 -0.227239 -0.973638)
(-0.0230951 -0.227693 -0.973459)
(-0.0211525 -0.22618 -0.973856)
(-0.0206385 -0.227137 -0.973644)
(-0.022208 -0.226801 -0.973688)
(-0.0217147 -0.226972 -0.973659)
(-0.0211353 -0.225696 -0.973968)
(-0.0220259 -0.225619 -0.973967)
(-0.0211247 -0.225715 -0.973964)
(-0.0213769 -0.225332 -0.974048)
(-0.0217726 -0.22651 -0.973765)
(-0.0221275 -0.226483 -0.973764)
(-0.0221712 -0.226905 -0.973665)
(-0.0201656 -0.227277 -0.973621)
(-0.0226757 -0.22803 -0.97339)
(-0.0215642 -0.225347 -0.97404)
(-0.0209328 -0.22646 -0.973795)
(-0.0219669 -0.22659 -0.973743)
(-0.0216302 -0.226721 -0.973719)
(-0.0217673 -0.226954 -0.973662)
(-0.0215167 -0.226918 -0.973676)
(-0.021877 -0.227161 -0.973611)
(-0.0220773 -0.226401 -0.973784)
(-0.0217144 -0.225822 -0.973927)
(-0.0225466 -0.22683 -0.973673)
(-0.0201505 -0.226752 -0.973744)
(-0.0222898 -0.226041 -0.973863)
(-0.0217142 -0.226197 -0.97384)
(-0.0216208 -0.226524 -0.973765)
(-0.0216491 -0.226517 -0.973767)
(-0.021498 -0.226735 -0.973719)
(-0.0217721 -0.226142 -0.973851)
(-0.0214872 -0.225756 -0.973947)
(-0.0218489 -0.225414 -0.974018)
(-0.0222368 -0.227299 -0.973571)
(-0.0223634 -0.226247 -0.973813)
(-0.02216 -0.226666 -0.97372)
(-0.022105 -0.225808 -0.973921)
(-0.0214713 -0.226326 -0.973815)
(-0.0214226 -0.226987 -0.973662)
(-0.0205717 -0.226338 -0.973832)
(-0.0219399 -0.226837 -0.973686)
(-0.0211907 -0.226469 -0.973788)
(-0.0212858 -0.226073 -0.973878)
(-0.0219458 -0.226544 -0.973754)
(-0.0222148 -0.225922 -0.973892)
(-0.0218356 -0.225537 -0.97399)
(-0.022262 -0.225704 -0.973942)
(-0.0212397 -0.225805 -0.973941)
(-0.0223836 -0.227424 -0.973539)
(-0.0208175 -0.227258 -0.973612)
(-0.0208553 -0.227248 -0.973614)
(-0.0211379 -0.226409 -0.973803)
(-0.0208842 -0.227274 -0.973607)
(-0.0208638 -0.225976 -0.973909)
(-0.0217809 -0.226343 -0.973804)
(-0.0211418 -0.226956 -0.973676)
(-0.0223128 -0.227057 -0.973626)
(-0.0212198 -0.225512 -0.974009)
(-0.0239658 -0.227886 -0.973393)
(-0.0219921 -0.226044 -0.973869)
(-0.0222329 -0.226114 -0.973847)
(-0.0201692 -0.22684 -0.973723)
(-0.0223073 -0.22725 -0.973581)
(-0.0233326 -0.22608 -0.973829)
(-0.0221741 -0.226613 -0.973732)
(-0.0219687 -0.226684 -0.973721)
(-0.0224494 -0.225997 -0.973869)
(-0.022284 -0.226561 -0.973742)
(-0.0219025 -0.226894 -0.973673)
(-0.0223042 -0.226628 -0.973726)
(-0.0222158 -0.226385 -0.973785)
(-0.0221199 -0.227321 -0.973569)
(-0.0224979 -0.225751 -0.973925)
(-0.0207689 -0.226815 -0.973716)
(-0.0215905 -0.225931 -0.973904)
(-0.0220103 -0.226132 -0.973848)
(-0.0211425 -0.226132 -0.973867)
(-0.0219283 -0.226182 -0.973838)
(-0.0219533 -0.224812 -0.974155)
(-0.0221691 -0.227415 -0.973546)
(-0.0211533 -0.227408 -0.97357)
(-0.0206232 -0.226331 -0.973832)
(-0.0209157 -0.225752 -0.97396)
(-0.0213319 -0.227365 -0.973576)
(-0.0217269 -0.226788 -0.973702)
(-0.0217539 -0.226595 -0.973746)
(-0.0209677 -0.226533 -0.973778)
(-0.0213261 -0.226222 -0.973842)
(-0.0216194 -0.226441 -0.973785)
(-0.02155 -0.22637 -0.973803)
(-0.0216505 -0.226786 -0.973704)
(-0.0214431 -0.226799 -0.973706)
(-0.0217905 -0.226563 -0.973753)
(-0.0220895 -0.226545 -0.97375)
(-0.0213017 -0.226787 -0.973711)
(-0.0211399 -0.226693 -0.973737)
(-0.0218844 -0.226337 -0.973803)
(-0.021828 -0.22671 -0.973718)
(-0.0219844 -0.226519 -0.973759)
(-0.0202843 -0.22573 -0.973979)
(-0.0206753 -0.226503 -0.973791)
(-0.0218447 -0.226199 -0.973836)
(-0.0208342 -0.226803 -0.973718)
(-0.0216567 -0.226529 -0.973764)
(-0.0215591 -0.226482 -0.973777)
(-0.0211125 -0.22699 -0.973668)
(-0.0216276 -0.22625 -0.973829)
(-0.0216637 -0.226334 -0.973809)
(-0.0210897 -0.226288 -0.973832)
(-0.0217339 -0.225674 -0.973961)
(-0.0216811 -0.225789 -0.973935)
(-0.0217734 -0.226161 -0.973847)
(-0.0213205 -0.22663 -0.973748)
(-0.0205079 -0.227541 -0.973553)
(-0.0220255 -0.226553 -0.97375)
(-0.0218107 -0.225697 -0.973953)
(-0.0220902 -0.226022 -0.973872)
(-0.0216198 -0.22639 -0.973797)
(-0.0216661 -0.226303 -0.973816)
(-0.0219516 -0.226788 -0.973697)
(-0.0221121 -0.225179 -0.974067)
(-0.021353 -0.227833 -0.973466)
(-0.0211382 -0.226549 -0.97377)
(-0.0227237 -0.226124 -0.973833)
(-0.0212601 -0.226906 -0.973685)
(-0.0211198 -0.226152 -0.973863)
(-0.0224227 -0.225596 -0.973963)
(-0.0213359 -0.226354 -0.973811)
(-0.0208089 -0.224631 -0.974222)
(-0.0218164 -0.227588 -0.973513)
(-0.0221153 -0.225392 -0.974017)
(-0.0221028 -0.225909 -0.973898)
(-0.0222607 -0.22662 -0.973729)
(-0.0221821 -0.226518 -0.973754)
(-0.0214896 -0.226315 -0.973817)
(-0.0214663 -0.225983 -0.973895)
(-0.0208502 -0.226146 -0.97387)
(-0.0223294 -0.226811 -0.973683)
(-0.0203829 -0.226662 -0.97376)
(-0.0220421 -0.226114 -0.973852)
(-0.022028 -0.225944 -0.973891)
(-0.0219367 -0.22661 -0.973738)
(-0.0214629 -0.225842 -0.973927)
(-0.0217323 -0.225926 -0.973902)
(-0.0216711 -0.225785 -0.973936)
(-0.0211484 -0.226552 -0.973769)
(-0.0196621 -0.227594 -0.973558)
(-0.0224173 -0.226591 -0.973732)
(-0.0212803 -0.227042 -0.973652)
(-0.0221127 -0.226405 -0.973782)
(-0.021119 -0.225715 -0.973964)
(-0.0220637 -0.225151 -0.974074)
(-0.0202873 -0.227694 -0.973521)
(-0.0220496 -0.226639 -0.973729)
(-0.0193763 -0.2266 -0.973795)
(-0.0211615 -0.226634 -0.97375)
(-0.0220874 -0.226527 -0.973755)
(-0.0220364 -0.225979 -0.973883)
(-0.0206786 -0.226681 -0.973749)
(-0.0215788 -0.22707 -0.973639)
(-0.0212219 -0.227547 -0.973536)
(-0.0196393 -0.226358 -0.973846)
(-0.0208485 -0.227786 -0.973488)
(-0.0214722 -0.226315 -0.973817)
(-0.0218472 -0.225665 -0.97396)
(-0.0215114 -0.2264 -0.973797)
(-0.0216409 -0.22578 -0.973938)
(-0.0216448 -0.225578 -0.973985)
(-0.0216133 -0.227077 -0.973637)
(-0.0213536 -0.227523 -0.973539)
(-0.0207805 -0.226594 -0.973768)
(-0.0215982 -0.22633 -0.973811)
(-0.0218291 -0.225871 -0.973913)
(-0.0217222 -0.226461 -0.973778)
(-0.0218028 -0.226371 -0.973797)
(-0.0215813 -0.226318 -0.973814)
(-0.021845 -0.226707 -0.973718)
(-0.0217025 -0.226083 -0.973866)
(-0.0208449 -0.226733 -0.973734)
(-0.0216298 -0.226323 -0.973812)
(-0.0215985 -0.226371 -0.973802)
(-0.0218678 -0.226446 -0.973778)
(-0.0223325 -0.227158 -0.973602)
(-0.0198556 -0.226956 -0.973703)
)

// normal volume types

298
(
0
0
0
0
0
0
0
0
0
0
0
0
0
0
0
0
0
0
0
0
0
0
0
0
0
0
0
0
0
0
0
0
0
0
0
0
0
0
0
0
0
0
0
0
0
0
0
0
0
0
0
0
0
0
0
0
0
0
0
0
0
0
0
0
0
0
0
0
0
0
0
0
0
0
0
0
0
0
0
0
0
0
0
0
0
0
0
0
0
0
0
0
0
0
0
0
0
0
0
0
0
0
0
0
0
0
0
0
0
0
0
0
0
0
0
0
0
0
0
0
0
0
0
0
0
0
0
0
0
0
0
0
0
0
0
0
0
0
0
0
0
0
0
0
0
0
0
0
0
0
0
0
0
0
0
0
0
0
0
0
0
0
0
0
0
0
0
0
0
0
0
0
0
0
0
0
0
0
0
0
0
0
0
0
0
0
0
0
0
0
0
0
0
0
0
0
0
0
0
0
0
0
0
0
0
0
0
0
0
0
0
0
0
0
0
0
0
0
0
0
0
0
0
0
0
0
0
0
0
0
0
0
0
0
0
0
0
0
0
0
0
0
0
0
0
0
0
0
0
0
0
0
0
0
0
0
0
0
0
0
0
0
0
0
0
0
0
0
0
0
0
0
0
0
0
0
0
0
0
0
0
0
0
0
0
0
0
0
0
0
0
0
0
0
0
0
0
0
)

// normalDirections

505
(
2(1 -1)
2(1 -1)
2(1 -1)
2(1 -1)
2(1 -1)
2(1 -1)
2(1 -1)
2(1 -1)
2(1 -1)
2(1 -1)
2(1 -1)
2(1 -1)
2(1 -1)
2(1 -1)
2(1 -1)
2(1 -1)
2(1 -1)
2(1 -1)
2(1 -1)
2(1 -1)
2(1 -1)
2(1 -1)
2(1 -1)
2(1 -1)
2(1 -1)
2(1 -1)
2(1 -1)
2(1 -1)
2(1 -1)
2(1 -1)
2(1 -1)
2(1 -1)
2(1 -1)
2(1 -1)
2(1 -1)
2(1 -1)
2(1 -1)
2(1 -1)
2(1 -1)
2(1 -1)
2(1 -1)
2(1 -1)
2(1 -1)
2(1 -1)
2(1 -1)
2(1 -1)
2(1 -1)
2(1 -1)
2(1 -1)
2(1 -1)
2(1 -1)
2(1 -1)
2(1 -1)
2(1 -1)
2(1 -1)
2(1 -1)
2(1 -1)
2(1 -1)
2(1 -1)
2(1 -1)
2(1 -1)
2(1 -1)
2(1 -1)
2(1 -1)
2(1 -1)
2(1 -1)
2(1 -1)
2(1 -1)
2(1 -1)
2(1 -1)
2(1 -1)
2(1 -1)
2(1 -1)
2(1 -1)
2(1 -1)
2(1 -1)
2(1 -1)
2(1 -1)
2(1 -1)
2(1 -1)
2(1 -1)
2(1 -1)
2(1 -1)
2(1 -1)
2(1 -1)
2(1 -1)
2(1 -1)
2(1 -1)
2(1 -1)
2(1 -1)
2(1 -1)
2(1 -1)
2(1 -1)
2(1 -1)
2(1 -1)
2(1 -1)
2(1 -1)
2(1 -1)
2(1 -1)
2(1 -1)
2(1 -1)
2(1 -1)
2(1 -1)
2(1 -1)
2(1 -1)
2(1 -1)
2(1 -1)
2(1 -1)
2(1 -1)
2(1 -1)
2(1 -1)
2(1 -1)
2(1 -1)
2(1 -1)
2(1 -1)
2(1 -1)
2(1 -1)
2(1 -1)
2(1 -1)
2(1 -1)
2(1 -1)
2(1 -1)
2(1 -1)
2(1 -1)
2(1 -1)
2(1 -1)
2(1 -1)
2(1 -1)
2(1 -1)
2(1 -1)
2(1 -1)
2(1 -1)
2(1 -1)
2(1 -1)
2(1 -1)
2(1 -1)
2(1 -1)
2(1 -1)
2(1 -1)
2(1 -1)
2(1 -1)
2(1 -1)
2(1 -1)
2(1 -1)
2(1 -1)
2(1 -1)
2(1 -1)
2(1 -1)
2(1 -1)
2(1 -1)
2(1 -1)
2(1 -1)
2(1 -1)
2(1 -1)
2(1 -1)
2(1 -1)
2(1 -1)
2(1 -1)
2(1 -1)
2(1 -1)
2(1 -1)
2(1 -1)
2(1 -1)
2(1 -1)
2(1 -1)
2(1 -1)
2(1 -1)
2(1 -1)
2(1 -1)
2(1 -1)
2(1 -1)
2(1 -1)
2(1 -1)
2(1 -1)
2(1 -1)
2(1 -1)
2(1 -1)
2(1 -1)
2(1 -1)
2(1 -1)
2(1 -1)
2(1 -1)
2(1 -1)
2(1 -1)
2(1 -1)
2(1 -1)
2(1 -1)
2(1 -1)
2(1 -1)
2(1 -1)
2(1 -1)
2(1 -1)
2(1 -1)
2(1 -1)
2(1 -1)
2(1 -1)
2(1 -1)
2(1 -1)
2(1 -1)
2(1 -1)
2(1 -1)
2(1 -1)
2(1 -1)
2(1 -1)
2(1 -1)
2(1 -1)
2(1 -1)
2(1 -1)
2(1 -1)
2(1 -1)
2(1 -1)
2(1 -1)
2(1 -1)
2(1 -1)
2(1 -1)
2(1 -1)
2(1 -1)
2(1 -1)
2(1 -1)
2(1 -1)
2(1 -1)
2(1 -1)
2(1 -1)
2(1 -1)
2(1 -1)
2(1 -1)
2(1 -1)
2(1 -1)
2(1 -1)
2(1 -1)
2(1 -1)
2(1 -1)
2(1 -1)
2(1 -1)
2(1 -1)
2(1 -1)
2(1 -1)
2(1 -1)
2(1 -1)
2(1 -1)
2(1 -1)
2(1 -1)
2(1 -1)
2(1 -1)
2(1 -1)
2(1 -1)
2(1 -1)
2(1 -1)
2(1 -1)
2(1 -1)
2(1 -1)
2(1 -1)
2(1 -1)
2(1 -1)
2(1 -1)
2(1 -1)
2(1 -1)
2(1 -1)
2(1 -1)
2(1 -1)
2(1 -1)
2(1 -1)
2(1 -1)
2(1 -1)
2(1 -1)
2(1 -1)
2(1 -1)
2(1 -1)
2(1 -1)
2(1 -1)
2(1 -1)
2(1 -1)
2(1 -1)
2(1 -1)
2(1 -1)
2(1 -1)
2(1 -1)
2(1 -1)
2(1 -1)
2(1 -1)
2(1 -1)
2(1 -1)
2(1 -1)
2(1 -1)
2(1 -1)
2(1 -1)
2(1 -1)
2(1 -1)
2(1 -1)
2(1 -1)
2(1 -1)
2(1 -1)
2(1 -1)
2(1 -1)
2(1 -1)
2(1 -1)
2(1 -1)
2(1 -1)
2(1 -1)
2(1 -1)
2(1 -1)
2(1 -1)
2(1 -1)
2(1 -1)
2(1 -1)
2(1 -1)
2(1 -1)
2(1 -1)
2(1 -1)
2(1 -1)
2(1 -1)
2(1 -1)
2(1 -1)
2(1 -1)
2(1 -1)
2(1 -1)
2(1 -1)
2(1 -1)
2(1 -1)
2(1 -1)
2(1 -1)
2(1 -1)
2(1 -1)
2(1 -1)
2(1 -1)
2(1 -1)
2(1 -1)
2(1 -1)
2(1 -1)
2(1 -1)
2(1 -1)
2(1 -1)
2(1 -1)
2(1 -1)
2(1 -1)
2(1 -1)
2(1 -1)
2(1 -1)
2(1 -1)
2(1 -1)
2(1 -1)
2(1 -1)
2(1 -1)
2(1 -1)
2(1 -1)
2(1 -1)
2(1 -1)
2(1 -1)
2(1 -1)
2(1 -1)
2(1 -1)
2(1 -1)
2(1 -1)
2(1 -1)
2(1 -1)
2(1 -1)
2(1 -1)
2(1 -1)
2(1 -1)
2(1 -1)
2(1 -1)
2(1 -1)
2(1 -1)
2(1 -1)
2(1 -1)
2(1 -1)
2(1 -1)
2(1 -1)
2(1 -1)
2(1 -1)
2(1 -1)
2(1 -1)
2(1 -1)
2(1 -1)
2(1 -1)
2(1 -1)
2(1 -1)
2(1 -1)
2(1 -1)
2(1 -1)
2(1 -1)
2(1 -1)
2(1 -1)
2(1 -1)
2(1 -1)
2(1 -1)
2(1 -1)
2(1 -1)
2(1 -1)
1(1)
1(1)
1(1)
1(1)
1(1)
1(1)
1(1)
1(1)
1(1)
1(1)
1(1)
1(1)
1(1)
1(1)
1(1)
1(1)
1(1)
1(1)
1(1)
1(1)
1(1)
1(1)
1(1)
1(1)
1(1)
1(1)
1(1)
1(1)
1(1)
1(1)
1(1)
1(1)
1(1)
1(1)
1(1)
1(1)
1(1)
1(1)
1(1)
1(1)
1(1)
1(1)
1(1)
1(1)
1(1)
1(1)
1(1)
1(1)
1(1)
1(1)
1(1)
1(1)
1(1)
1(1)
1(1)
1(1)
1(1)
1(1)
1(1)
1(1)
1(1)
1(1)
1(1)
1(1)
1(1)
1(1)
1(1)
1(1)
1(1)
1(1)
1(1)
1(1)
1(1)
1(1)
1(1)
1(1)
1(1)
1(1)
1(1)
1(1)
1(1)
1(1)
1(1)
1(1)
1(1)
1(1)
1(1)
1(1)
1(1)
1(1)
1(1)
1(1)
1(1)
1(1)
1(1)
1(1)
1(1)
1(1)
1(1)
1(1)
1(1)
1(1)
1(1)
1(1)
1(1)
1(1)
1(1)
1(1)
1(1)
1(1)
1(1)
1(1)
1(1)
1(1)
1(1)
1(1)
)

// edgeNormals

505
(
2(126 127)
2(136 138)
2(145 147)
2(172 14)
2(172 88)
2(175 176)
2(127 177)
2(1 19)
2(192 5)
2(211 213)
2(4 89)
2(11 51)
2(12 70)
2(237 94)
2(22 109)
2(241 55)
2(241 106)
2(23 108)
2(26 46)
2(27 42)
2(28 45)
2(242 44)
2(242 48)
2(31 244)
2(36 250)
2(244 43)
2(40 252)
2(47 76)
2(49 111)
2(50 102)
2(54 113)
2(263 95)
2(56 82)
2(59 83)
2(60 227)
2(61 62)
2(64 88)
2(65 266)
2(66 71)
2(67 267)
2(68 69)
2(268 269)
2(260 101)
2(79 80)
2(84 86)
2(85 275)
2(276 114)
2(96 100)
2(104 105)
2(265 110)
2(118 12)
2(126 180)
2(172 180)
2(175 281)
2(120 235)
2(127 264)
2(176 146)
2(185 196)
2(0 5)
2(1 87)
2(192 214)
2(2 108)
2(194 150)
2(3 110)
2(7 112)
2(8 61)
2(9 84)
2(134 138)
2(10 234)
2(11 103)
2(170 51)
2(170 102)
2(14 69)
2(18 62)
2(19 213)
2(22 96)
2(23 58)
2(24 85)
2(25 111)
2(26 221)
2(28 46)
2(29 162)
2(242 163)
2(31 32)
2(34 54)
2(34 114)
2(247 276)
2(35 76)
2(36 103)
2(38 48)
2(40 42)
2(41 43)
2(245 283)
2(45 162)
2(47 296)
2(255 260)
2(55 105)
2(59 60)
2(64 67)
2(68 266)
2(268 97)
2(268 109)
2(77 79)
2(78 98)
2(82 106)
2(197 275)
2(297 256)
2(86 115)
2(92 94)
2(92 95)
2(116 117)
2(118 72)
2(119 120)
2(119 121)
2(122 123)
2(124 121)
2(124 125)
2(128 129)
2(130 131)
2(132 133)
2(132 134)
2(132 135)
2(136 137)
2(139 140)
2(141 142)
2(141 143)
2(142 144)
2(145 146)
2(148 149)
2(148 150)
2(133 151)
2(133 152)
2(153 154)
2(155 156)
2(157 158)
2(159 160)
2(159 161)
2(149 162)
2(149 163)
2(164 165)
2(164 166)
2(131 167)
2(165 168)
2(169 170)
2(169 171)
2(173 168)
2(173 174)
2(175 138)
2(120 158)
2(178 179)
2(178 174)
2(180 181)
2(176 137)
2(182 179)
2(182 166)
2(183 117)
2(183 184)
2(185 186)
2(187 161)
2(0 6)
2(188 156)
2(188 189)
2(151 190)
2(151 191)
2(192 80)
2(146 186)
2(193 194)
2(193 147)
2(195 196)
2(195 197)
2(198 199)
2(200 143)
2(201 199)
2(202 203)
2(204 205)
2(204 206)
2(207 199)
2(208 209)
2(208 210)
2(211 212)
2(214 215)
2(194 216)
2(217 218)
2(129 219)
2(220 221)
2(3 24)
2(222 209)
2(222 223)
2(4 97)
2(216 224)
2(6 225)
2(168 179)
2(7 226)
2(8 227)
2(9 228)
2(229 223)
2(229 210)
2(230 231)
2(10 78)
2(232 233)
2(232 140)
2(234 171)
2(234 74)
2(177 71)
2(13 70)
2(15 16)
2(18 235)
2(212 181)
2(20 236)
2(20 87)
2(21 90)
2(205 236)
2(237 91)
2(238 152)
2(238 239)
2(240 196)
2(25 226)
2(29 44)
2(30 243)
2(32 39)
2(33 245)
2(160 246)
2(247 248)
2(249 140)
2(37 245)
2(243 251)
2(189 253)
2(254 191)
2(255 256)
2(251 257)
2(258 150)
2(258 259)
2(250 104)
2(52 53)
2(53 260)
2(123 261)
2(123 262)
2(263 100)
2(121 264)
2(56 107)
2(57 107)
2(58 265)
2(270 271)
2(272 273)
2(81 267)
2(274 269)
2(228 273)
2(252 257)
2(276 115)
2(184 277)
2(278 279)
2(219 262)
2(190 239)
2(271 280)
2(154 246)
2(98 101)
2(224 281)
2(135 191)
2(143 282)
2(259 283)
2(269 277)
2(275 112)
2(116 284)
2(116 274)
2(118 119)
2(122 128)
2(122 264)
2(124 157)
2(126 266)
2(128 181)
2(130 156)
2(130 154)
2(136 285)
2(139 134)
2(139 281)
2(141 182)
2(142 241)
2(145 224)
2(148 220)
2(153 187)
2(153 167)
2(155 165)
2(155 285)
2(157 161)
2(159 286)
2(164 137)
2(131 287)
2(169 174)
2(173 189)
2(288 117)
2(288 209)
2(288 215)
2(286 272)
2(286 158)
2(178 144)
2(144 250)
2(183 222)
2(185 147)
2(187 125)
2(188 231)
2(193 289)
2(195 289)
2(198 290)
2(198 259)
2(200 166)
2(200 186)
2(201 208)
2(201 291)
2(202 218)
2(202 280)
2(204 218)
2(207 233)
2(207 258)
2(291 215)
2(291 257)
2(211 206)
2(214 284)
2(2 292)
2(217 293)
2(217 219)
2(203 205)
2(203 294)
2(129 206)
2(220 289)
2(216 233)
2(284 225)
2(229 249)
2(230 247)
2(230 256)
2(287 285)
2(287 135)
2(232 210)
2(177 17)
2(13 63)
2(15 81)
2(16 213)
2(17 72)
2(212 267)
2(21 93)
2(237 278)
2(167 254)
2(238 295)
2(240 282)
2(240 265)
2(292 57)
2(292 282)
2(27 243)
2(30 41)
2(33 39)
2(160 248)
2(249 152)
2(35 99)
2(236 90)
2(226 197)
2(37 38)
2(244 290)
2(254 261)
2(49 221)
2(255 253)
2(171 253)
2(251 290)
2(50 74)
2(52 297)
2(248 273)
2(293 271)
2(293 239)
2(225 99)
2(263 279)
2(235 63)
2(65 66)
2(73 83)
2(73 228)
2(75 91)
2(75 294)
2(270 295)
2(270 184)
2(77 252)
2(272 227)
2(296 274)
2(296 89)
2(297 113)
2(295 223)
2(93 294)
2(125 261)
2(278 280)
2(190 262)
2(279 277)
2(246 231)
2(283 163)
1(0)
1(1)
1(2)
1(3)
1(4)
1(5)
1(6)
1(7)
1(8)
1(9)
1(10)
1(11)
1(12)
1(13)
1(14)
1(15)
1(16)
1(17)
1(18)
1(19)
1(20)
1(21)
1(22)
1(23)
1(24)
1(25)
1(26)
1(27)
1(28)
1(29)
1(30)
1(31)
1(32)
1(33)
1(34)
1(35)
1(36)
1(37)
1(38)
1(39)
1(40)
1(41)
1(42)
1(43)
1(44)
1(45)
1(46)
1(47)
1(48)
1(49)
1(50)
1(51)
1(52)
1(53)
1(54)
1(55)
1(56)
1(57)
1(58)
1(59)
1(60)
1(61)
1(62)
1(63)
1(64)
1(65)
1(66)
1(67)
1(68)
1(69)
1(70)
1(71)
1(72)
1(73)
1(74)
1(75)
1(76)
1(77)
1(78)
1(79)
1(80)
1(81)
1(82)
1(83)
1(84)
1(85)
1(86)
1(87)
1(88)
1(89)
1(90)
1(91)
1(92)
1(93)
1(94)
1(95)
1(96)
1(97)
1(98)
1(99)
1(100)
1(101)
1(102)
1(103)
1(104)
1(105)
1(106)
1(107)
1(108)
1(109)
1(110)
1(111)
1(112)
1(113)
1(114)
1(115)
)

// featurePointNormals

208
(
4(47 76 35 116)
1(116)
2(116 184)
3(127 177 264)
3(12 70 118)
2(118 12)
1(119)
2(122 262)
2(122 125)