/*--------------------------------*- C++ -*----------------------------------*\
  =========                 |
  \\      /  F ield         | OpenFOAM: The Open Source CFD Toolbox
   \\    /   O peration     | Website:  https://openfoam.org
    \\  /    A nd           | Version:  6
     \\/     M anipulation  |
\*---------------------------------------------------------------------------*/
FoamFile
{
    version     2.0;
    format      ascii;
    class       extendedFeatureEdgeMesh;
    location    "constant/extendedFeatureEdgeMesh";
    object      outlet4.extendedFeatureEdgeMesh;
}
// * * * * * * * * * * * * * * * * * * * * * * * * * * * * * * * * * * * * * //

// points

116
(
(1.25024 187.909 -163.012)
(1.1358 187.74 -162.97)
(0.876914 192.453 -164.061)
(1.02536 192.279 -164.023)
(-5.28422 187.771 -162.835)
(-5.39866 187.941 -162.872)
(-4.57661 187.023 -162.677)
(-4.73355 187.159 -162.705)
(1.77902 189.225 -163.33)
(1.7355 189.026 -163.283)
(1.01174 187.576 -162.93)
(1.35531 188.084 -163.055)
(-3.88204 186.571 -162.587)
(-4.06509 186.67 -162.606)
(-3.50197 193.517 -164.211)
(-3.30583 193.585 -164.231)
(-4.41261 193.03 -164.077)
(-4.24153 193.146 -164.108)
(-5.88408 190.878 -163.544)
(-5.82973 191.074 -163.591)
(-5.99374 189.869 -163.307)
(-5.99354 190.073 -163.355)
(-2.07421 193.776 -164.303)
(-1.86547 193.767 -164.305)
(-2.49074 193.752 -164.288)
(-2.28255 193.77 -164.297)
(-0.454069 193.423 -164.256)
(-0.266869 193.332 -164.24)
(0.428001 192.88 -164.15)
(0.585054 192.745 -164.122)
(0.734686 192.603 -164.092)
(-1.65768 193.748 -164.305)
(-1.45062 193.719 -164.303)
(-2.9028 193.689 -164.264)
(-2.69744 193.725 -164.277)
(1.1644 192.093 -163.983)
(1.2852 191.905 -163.942)
(1.40471 191.695 -163.896)
(1.50755 191.488 -163.85)
(1.84531 189.831 -163.472)
(1.83406 189.628 -163.425)
(-5.02611 187.45 -162.766)
(-5.16016 187.607 -162.8)
(-4.41318 186.896 -162.651)
(-3.69423 186.481 -162.57)
(-3.10583 186.271 -162.535)
(-3.30558 186.331 -162.544)
(0.264259 186.874 -162.75)
(0.0933668 186.758 -162.719)
(-2.69762 186.184 -162.524)
(-2.90266 186.223 -162.528)
(-2.25957 186.135 -162.522)
(-2.49059 186.155 -162.521)
(-0.0835068 186.651 -162.69)
(-0.453859 186.465 -162.639)
(-0.646252 186.387 -162.616)
(-0.864702 186.312 -162.594)
(-1.09165 186.248 -162.574)
(-1.34631 186.195 -162.556)
(-5.15945 192.327 -163.897)
(-5.02535 192.482 -163.936)
(1.53845 188.449 -163.144)
(1.45108 188.264 -163.099)
(-5.96018 189.464 -163.214)
(-5.98249 189.666 -163.26)
(-1.58999 186.159 -162.542)
(-1.81593 186.137 -162.532)
(0.585118 187.133 -162.817)
(0.428183 186.999 -162.782)
(-0.266382 186.553 -162.663)
(-2.0272 186.129 -162.526)
(1.68095 188.83 -163.236)
(1.61536 188.637 -163.19)
(-3.50217 186.401 -162.556)
(-5.9602 190.478 -163.45)
(-5.92734 190.679 -163.497)
(-5.98235 190.276 -163.402)
(-5.50335 191.819 -163.772)
(-5.39895 191.995 -163.815)
(-5.59946 191.639 -163.728)
(-5.28489 192.165 -163.857)
(-5.82938 188.867 -163.078)
(-5.88392 189.064 -163.122)
(-5.5995 188.299 -162.951)
(-5.68688 188.484 -162.992)
(-5.50375 188.118 -162.911)
(-4.88306 187.301 -162.735)
(-3.88187 193.35 -164.164)
(-3.69436 193.438 -164.188)
(-3.10559 193.642 -164.249)
(-0.0837876 193.233 -164.221)
(0.0931059 193.125 -164.199)
(-1.04242 193.632 -164.292)
(-0.8426 193.573 -164.283)
(-1.24563 193.681 -164.299)
(0.264173 193.007 -164.176)
(-0.646565 193.502 -164.271)
(-4.06465 193.253 -164.137)
(1.59868 191.273 -163.802)
(1.67468 191.058 -163.754)
(0.734637 187.274 -162.853)
(-5.76327 191.266 -163.637)
(0.877686 187.421 -162.891)
(-5.76379 188.674 -163.034)
(-4.57643 192.905 -164.045)
(-4.24179 186.779 -162.628)
(-4.73348 192.771 -164.01)
(1.73566 190.84 -163.705)
(1.7789 190.641 -163.659)
(1.81177 190.44 -163.613)
(1.83392 190.237 -163.567)
(1.84511 190.034 -163.52)
(1.81175 189.426 -163.377)
(-5.68644 191.455 -163.683)
(-5.92745 189.263 -163.168)
(-4.88311 192.63 -163.974)
)

// edges

116
(
(0 1)
(2 3)
(4 5)
(6 7)
(8 9)
(1 10)
(11 0)
(12 13)
(14 15)
(16 17)
(18 19)
(20 21)
(22 23)
(24 25)
(26 27)
(28 29)
(29 30)
(31 32)
(33 34)
(30 2)
(35 36)
(37 38)
(39 40)
(41 42)
(43 6)
(44 12)
(45 46)
(47 48)
(49 50)
(51 52)
(48 53)
(54 55)
(55 56)
(57 58)
(59 60)
(61 62)
(63 64)
(58 65)
(65 66)
(56 57)
(67 68)
(53 69)
(68 47)
(69 54)
(70 51)
(52 49)
(50 45)
(71 72)
(66 70)
(46 73)
(74 75)
(21 76)
(77 78)
(79 77)
(80 59)
(81 82)
(83 84)
(5 85)
(86 41)
(87 88)
(88 14)
(15 89)
(89 33)
(34 24)
(90 91)
(92 93)
(94 92)
(91 95)
(93 96)
(96 26)
(25 22)
(32 94)
(23 31)
(17 97)
(75 18)
(98 99)
(72 61)
(100 67)
(19 101)
(102 100)
(10 102)
(95 28)
(84 103)
(97 87)
(104 16)
(105 43)
(106 104)
(3 35)
(27 90)
(9 71)
(36 37)
(99 107)
(108 109)
(38 98)
(107 108)
(109 110)
(111 39)
(112 8)
(101 113)
(62 11)
(110 111)
(113 79)
(76 74)
(64 20)
(114 63)
(82 114)
(103 81)
(85 83)
(42 4)
(40 112)
(7 86)
(73 44)
(13 105)
(78 80)
(60 115)
(115 106)
)

// concaveStart mixedStart nonFeatureStart
0 0 0
// internalStart flatStart openStart multipleStart
0 0 0 116
// normals

116
(
(-0.0222173 -0.226898 -0.973665)
(-0.0185115 -0.22843 -0.973384)
(-0.0206281 -0.225795 -0.973956)
(-0.0226594 -0.226617 -0.97372)
(-0.0212837 -0.225375 -0.97404)
(-0.0162307 -0.225366 -0.974139)
(-0.0217639 -0.22621 -0.973835)
(-0.0215585 -0.226712 -0.973723)
(-0.020445 -0.22741 -0.973585)
(-0.0229681 -0.22641 -0.973761)
(-0.020379 -0.227777 -0.9735)
(-0.0217822 -0.22892 -0.973201)
(-0.0192728 -0.230875 -0.972793)
(-0.0222627 -0.229152 -0.973136)
(-0.0248396 -0.222363 -0.974648)
(-0.0209461 -0.226329 -0.973826)
(-0.0205685 -0.227357 -0.973594)
(-0.0223378 -0.226555 -0.973742)
(-0.0216444 -0.227609 -0.973512)
(-0.0259394 -0.225801 -0.973828)
(-0.0208716 -0.225812 -0.973947)
(-0.0219138 -0.227195 -0.973603)
(-0.01979 -0.224475 -0.974279)
(-0.0181928 -0.226415 -0.973861)
(-0.0217788 -0.227349 -0.97357)
(-0.0207977 -0.227294 -0.973604)
(-0.0229963 -0.2228 -0.974593)
(-0.0222036 -0.22751 -0.973523)
(-0.0238006 -0.224972 -0.974075)
(-0.0237858 -0.225661 -0.973915)
(-0.0218325 -0.227689 -0.973489)
(-0.0236106 -0.228844 -0.973177)
(-0.0206204 -0.225691 -0.973981)
(-0.0217971 -0.226134 -0.973852)
(-0.0208663 -0.226949 -0.973683)
(-0.0224559 -0.22626 -0.973808)
(-0.0232548 -0.224378 -0.974225)
(-0.0224312 -0.226566 -0.973738)
(-0.021145 -0.225929 -0.973914)
(-0.0220267 -0.226073 -0.973861)
(-0.0198156 -0.230898 -0.972776)
(-0.0217792 -0.227632 -0.973504)
(-0.01812 -0.225578 -0.974057)
(-0.0177196 -0.227634 -0.973586)
(-0.0225853 -0.225916 -0.973885)
(-0.0172146 -0.223849 -0.974472)
(-0.0199796 -0.226704 -0.973759)
(-0.0246287 -0.223792 -0.974326)
(-0.0190477 -0.226981 -0.973713)
(-0.0211059 -0.226109 -0.973873)
(-0.0216443 -0.224262 -0.974289)
(-0.0189957 -0.224509 -0.974287)
(-0.0190322 -0.226629 -0.973795)
(-0.019665 -0.227528 -0.973573)
(-0.0196286 -0.225362 -0.974077)
(-0.0251298 -0.2245 -0.97415)
(-0.0216351 -0.226055 -0.973874)
(-0.020583 -0.226777 -0.973729)
(-0.0235618 -0.225301 -0.974004)
(-0.0183671 -0.226486 -0.973841)
(-0.0240771 -0.224911 -0.974082)
(-0.0222436 -0.229038 -0.973163)
(-0.0191235 -0.228455 -0.973367)
(-0.0219111 -0.22887 -0.97321)
(-0.0188516 -0.229017 -0.97324)
(-0.0222545 -0.22402 -0.97433)
(-0.020677 -0.224713 -0.974206)
(-0.0224617 -0.222628 -0.974645)
(-0.0237446 -0.230111 -0.972875)
(-0.0184237 -0.229665 -0.973095)
(-0.0214137 -0.229182 -0.973148)
(-0.0228115 -0.225555 -0.973963)
(-0.0207209 -0.226644 -0.973757)
(-0.0219755 -0.227434 -0.973545)
(-0.0222828 -0.225261 -0.974044)
(-0.0224817 -0.225421 -0.974002)
(-0.023881 -0.228413 -0.973271)
(-0.0206097 -0.226719 -0.973742)
(-0.0206499 -0.226125 -0.973879)
(-0.0233607 -0.228894 -0.973171)
(-0.0220069 -0.225927 -0.973896)
(-0.0209051 -0.226342 -0.973824)
(-0.0220606 -0.224254 -0.974281)
(-0.0223815 -0.228801 -0.973216)
(-0.0186313 -0.224957 -0.97419)
(-0.0241456 -0.226752 -0.973653)
(-0.0214253 -0.229097 -0.973168)
(-0.0208754 -0.225053 -0.974123)
(-0.0219819 -0.22761 -0.973504)
(-0.0225349 -0.22725 -0.973576)
(-0.0226971 -0.226259 -0.973803)
(-0.0225367 -0.225221 -0.974047)
(-0.0199748 -0.226096 -0.9739)
(-0.0217996 -0.226639 -0.973735)
(-0.0180083 -0.228929 -0.973277)
(-0.0198363 -0.223034 -0.974609)
(-0.0193816 -0.230099 -0.972974)
(-0.0215587 -0.224305 -0.974281)
(-0.0217306 -0.228109 -0.973393)
(-0.022308 -0.226201 -0.973825)
(-0.0218047 -0.226631 -0.973737)
(-0.0214108 -0.227932 -0.973442)
(-0.0201285 -0.229073 -0.973201)
(-0.0217734 -0.226705 -0.97372)
(-0.0209809 -0.226304 -0.973831)
(-0.021509 -0.229648 -0.973036)
(-0.0232949 -0.229756 -0.97297)
(-0.0212381 -0.226482 -0.973784)
(-0.0210382 -0.223883 -0.974389)
(-0.02228 -0.228806 -0.973217)
(-0.0217887 -0.228559 -0.973286)
(-0.0231978 -0.226195 -0.973806)
(-0.019255 -0.227718 -0.973537)
(-0.0197696 -0.227239 -0.973638)
(-0.0230951 -0.227693 -0.973459)
(-0.0211525 -0.22618 -0.973856)
)

// normal volume types

116
(
0
0
0
0
0
0
0
0
0
0
0
0
0
0
0
0
0
0
0
0
0
0
0
0
0
0
0
0
0
0
0
0
0
0
0
0
0
0
0
0
0
0
0
0
0
0
0
0
0
0
0
0
0
0
0
0
0
0
0
0
0
0
0
0
0
0
0
0
0
0
0
0
0
0
0
0
0
0
0
0
0
0
0
0
0
0
0
0
0
0
0
0
0
0
0
0
0
0
0
0
0
0
0
0
0
0
0
0
0
0
0
0
0
0
0
0
)

// normalDirections

116
(
1(1)
1(1)
1(1)
1(1)
1(1)
1(1)
1(1)
1(1)
1(1)
1(1)
1(1)
1(1)
1(1)
1(1)
1(1)
1(1)
1(1)
1(1)
1(1)
1(1)
1(1)
1(1)
1(1)
1(1)
1(1)
1(1)
1(1)
1(1)
1(1)
1(1)
1(1)
1(1)
1(1)
1(1)
1(1)
1(1)
1(1)
1(1)
1(1)
1(1)
1(1)
1(1)
1(1)
1(1)
1(1)
1(1)
1(1)
1(1)
1(1)
1(1)
1(1)
1(1)
1(1)
1(1)
1(1)
1(1)
1(1)
1(1)
1(1)
1(1)
1(1)
1(1)
1(1)
1(1)
1(1)
1(1)
1(1)
1(1)
1(1)
1(1)
1(1)
1(1)
1(1)
1(1)
1(1)
1(1)
1(1)
1(1)
1(1)
1(1)
1(1)
1(1)
1(1)
1(1)
1(1)
1(1)
1(1)
1(1)
1(1)
1(1)
1(1)
1(1)
1(1)
1(1)
1(1)
1(1)
1(1)
1(1)
1(1)
1(1)
1(1)
1(1)
1(1)
1(1)
1(1)
1(1)
1(1)
1(1)
1(1)
1(1)
1(1)
1(1)
1(1)
1(1)
1(1)
1(1)
)

// edgeNormals

116
(
1(0)
1(1)
1(2)
1(3)
1(4)
1(5)
1(6)
1(7)
1(8)
1(9)
1(10)
1(11)
1(12)
1(13)
1(14)
1(15)
1(16)
1(17)
1(18)
1(19)
1(20)
1(21)
1(22)
1(23)
1(24)
1(25)
1(26)
1(27)
1(28)
1(29)
1(30)
1(31)
1(32)
1(33)
1(34)
1(35)
1(36)
1(37)
1(38)
1(39)
1(40)
1(41)
1(42)
1(43)
1(44)
1(45)
1(46)
1(47)
1(48)
1(49)
1(50)
1(51)
1(52)
1(53)
1(54)
1(55)
1(56)
1(57)
1(58)
1(59)
1(60)
1(61)
1(62)
1(63)
1(64)
1(65)
1(66)
1(67)
1(68)
1(69)
1(70)
1(71)
1(72)
1(73)
1(74)
1(75)
1(76)
1(77)
1(78)
1(79)
1(80)
1(81)
1(82)
1(83)
1(84)
1(85)
1(86)
1(87)
1(88)
1(89)
1(90)
1(91)
1(92)
1(93)
1(94)
1(95)
1(96)
1(97)
1(98)
1(99)
1(100)
1(101)
1(102)
1(103)
1(104)
1(105)
1(106)
1(107)
1(108)
1(109)
1(110)
1(111)
1(112)
1(113)
1(114)
1(115)
)

// featurePointNormals
0()
// featurePointEdges
0()
// regionEdges

116
(
0
1
2
3
4
5
6
7
8
9
10
11
12
13
14
15
16
17
18
19
20
21
22
23
24
25
26
27
28
29
30
31
32
33
34
35
36
37
38
39
40
41
42
43
44
45
46
47
48
49
50
51
52
53
54
55
56
57
58
59
60
61
62
63
64
65
66
67
68
69
70
71
72
73
74
75
76
77
78
79
80
81
82
83
84
85
86
87
88
89
90
91
92
93
94
95
96
97
98
99
100
101
102
103
104
105
106
107
108
109
110
111
112
113
114
115
)



// ************************************************************************* //
