/*--------------------------------*- C++ -*----------------------------------*\
  =========                 |
  \\      /  F ield         | OpenFOAM: The Open Source CFD Toolbox
   \\    /   O peration     | Website:  https://openfoam.org
    \\  /    A nd           | Version:  6
     \\/     M anipulation  |
\*---------------------------------------------------------------------------*/
FoamFile
{
    version     2.0;
    format      ascii;
    class       extendedFeatureEdgeMesh;
    location    "constant/extendedFeatureEdgeMesh";
    object      wall_aorta.extendedFeatureEdgeMesh;
}
// * * * * * * * * * * * * * * * * * * * * * * * * * * * * * * * * * * * * * //

// points

1621
(
(-4.22956 189.77 -89.8754)
(-5.01602 189.781 -89.2233)
(-5.55842 179.226 -62.4674)
(-7.17819 179.318 -58.4769)
(-4.59454 189.488 -89.3684)
(-3.66461 189.605 -90.0344)
(-3.77083 189.424 -89.7102)
(0.21037 186.765 -61.0727)
(-12.1404 179.209 -73.3938)
(-19.3081 172.847 -76.2537)
(-8.38343 181.843 -73.6554)
(-9.89691 183.138 -73.4591)
(-9.96787 183.515 -73.4064)
(-1.77038 191.863 -89.4125)
(-10.5114 183.979 -73.7245)
(-11.9249 178.54 -73.386)
(-7.43038 188.586 -75.327)
(-7.57823 188.561 -75.3338)
(-7.00205 188.72 -75.375)
(-8.53551 181.964 -73.5754)
(-8.54915 181.625 -73.7988)
(-3.68942 189.988 -91.0674)
(-12.7327 176.679 -74.7938)
(-22.2565 179.45 -77.4389)
(-3.97932 190.226 -90.8784)
(-3.71056 190.047 -90.8213)
(-3.69584 190.002 -90.6227)
(-3.80092 189.944 -90.3996)
(-3.34552 189.831 -90.6063)
(-4.46534 190.743 -90.7914)
(-4.38535 190.677 -90.6814)
(-4.45934 190.805 -90.5968)
(-4.51723 190.519 -89.9092)
(-12.0888 177.73 -73.9968)
(-11.9667 177.744 -73.8036)
(-6.77013 188.614 -74.9635)
(-6.75239 188.615 -75.1698)
(-6.86046 188.597 -75.0978)
(-26.4096 172.179 -78.7236)
(-14.8072 179.173 -73.0684)
(-13.2549 179.364 -73.2353)
(-13.4637 179.405 -73.2368)
(-12.7381 179.09 -73.0881)
(-24.9133 170.945 -78.5903)
(-24.5834 171.003 -78.2785)
(-1.83072 190.573 -89.1588)
(-1.87476 190.396 -89.1483)
(-10.7961 185.769 -74.5797)
(-18.1957 175.932 -74.2836)
(-18.2987 175.951 -74.1365)
(-6.78268 188.664 -75.2925)
(-7.91647 181.352 -74.2033)
(-4.5815 191.451 -89.7426)
(-4.67619 190.777 -89.7005)
(-18.2782 175.65 -74.3138)
(-15.0275 179.178 -73.147)
(-15.5726 179.345 -73.3781)
(-4.43261 187.953 -75.3452)
(-22.8374 179.334 -77.7431)
(-22.965 179.307 -78.0357)
(-12.6631 179.065 -73.1174)
(-12.7022 179.076 -73.1847)
(-10.7833 184.959 -74.1531)
(-18.234 176.606 -74.0535)
(-17.9869 175.223 -74.6312)
(-18.897 178.585 -74.3542)
(-19.001 178.524 -74.1653)
(-4.77281 191.278 -89.4617)
(-19.3977 179.096 -74.7154)
(-19.52 179.126 -74.6421)
(-22.3572 179.424 -77.3281)
(-4.50549 187.852 -75.6514)
(-5.98772 188.6 -75.1077)
(-6.04171 188.609 -75.3068)
(-12.4285 177.079 -74.686)
(-6.89843 188.624 -75.2271)
(-15.6976 179.079 -73.287)
(-11.9986 178.478 -73.5885)
(-11.978 178.55 -73.6535)
(-4.71279 187.997 -75.5063)
(-11.9487 178.259 -73.5799)
(-11.9393 178.416 -73.4936)
(-15.0985 179.331 -73.2746)
(-3.87643 187.033 -75.7304)
(-6.3401 188.627 -75.2177)
(-3.89595 184.477 -76.4452)
(-3.97516 184.326 -76.6911)
(-21.5613 179.514 -76.4655)
(-5.19304 188.335 -75.3704)
(-18.7135 173.923 -75.3128)
(-20.3067 179.56 -75.7144)
(-6.39211 188.673 -75.3192)
(-20.4397 179.514 -75.7291)
(-18.3266 176.585 -73.9145)
(-18.3115 176.488 -73.9532)
(-3.73667 184.957 -76.6991)
(-21.5309 179.544 -76.8003)
(-21.7164 179.492 -76.805)
(-18.6608 174.109 -75.0784)
(-18.8575 173.563 -75.6771)
(-18.3971 174.725 -74.779)
(-18.4595 174.746 -74.5827)
(-18.4822 174.618 -74.7388)
(-3.9583 184.152 -76.3268)
(-4.36523 183.379 -76.4627)
(-18.5745 177.687 -73.9107)
(-19.5923 172.282 -76.9261)
(-19.5612 172.439 -76.6602)
(-3.70022 185.169 -76.3464)
(-3.65416 185.049 -76.1851)
(-12.7037 176.698 -74.9499)
(-6.46862 188.637 -75.2285)
(-19.702 179.225 -74.8385)
(-8.27052 181.706 -73.7723)
(-18.2901 176.256 -74.0536)
(-9.38589 182.775 -73.3375)
(-18.9804 173.386 -75.7869)
(-8.58877 182.118 -73.4443)
(-18.9197 173.366 -75.894)
(-18.8985 173.277 -76.0226)
(-18.7923 173.432 -75.8938)
(-8.72401 181.938 -73.6098)
(-21.3558 179.565 -76.1326)
(-3.85637 186.987 -75.9827)
(-3.93053 187.07 -75.837)
(-18.5141 174.482 -74.8503)
(-21.2896 179.59 -76.6189)
(-20.1581 179.435 -75.0687)
(-18.7209 177.969 -73.97)
(-18.6528 178.012 -74.0967)
(-9.69226 182.474 -73.4921)
(-20.9337 179.579 -76.1903)
(-20.9992 179.547 -76.0512)
(-23.6228 179.103 -78.8629)
(-12.4578 177.055 -74.4899)
(-18.7579 173.679 -75.6177)
(-6.49627 188.706 -75.3554)
(-3.1792 192.72 -89.4071)
(-4.61828 183.027 -76.8443)
(-3.7041 185.143 -76.5972)
(-19.6592 179.357 -75.1032)
(-19.8755 179.307 -74.9538)
(-19.754 179.277 -75.0227)
(-19.8318 179.318 -75.1066)
(-14.8025 179.335 -73.2367)
(-4.36796 190.655 -90.5001)
(-3.7243 186.712 -76.1416)
(-12.3215 177.18 -74.2916)
(-2.94947 192.645 -88.8961)
(-2.78612 192.606 -88.8706)
(-13.2621 176.113 -75.1034)
(-13.0615 176.314 -75.0152)
(-3.75395 186.521 -76.0186)
(-3.70117 186.554 -75.8331)
(-20.7652 179.679 -76.2225)
(-13.4459 179.298 -73.1924)
(-12.043 177.77 -74.1975)
(-18.4088 174.933 -74.5174)
(-12.092 177.738 -74.1437)
(-7.50222 181.22 -74.5547)
(-18.2106 175.301 -74.5465)
(-2.58662 192.523 -88.869)
(-18.3275 175.249 -74.442)
(-3.77796 184.914 -76.512)
(-18.912 173.591 -75.4465)
(-18.9643 173.464 -75.6538)
(-11.1064 185.443 -74.6563)
(-12.1991 178.809 -73.4037)
(-18.9622 173.089 -76.2202)
(-12.803 179.297 -73.2712)
(-4.03939 187.383 -75.8644)
(-3.88788 186.97 -75.8346)
(-5.63929 188.577 -75.0756)
(-19.9915 179.374 -75.2434)
(-19.7588 179.254 -74.9262)
(-7.90662 181.578 -73.9421)
(-26.457 172.658 -78.484)
(-18.7163 173.834 -75.4497)
(-10.6519 184.239 -73.8491)
(-3.74064 186.799 -75.7335)
(-20.494 179.481 -75.5947)
(-19.7206 179.465 -75.2226)
(-18.3679 177.296 -73.9685)
(-18.2705 174.735 -74.862)
(-16.0423 178.976 -73.3535)
(-7.16805 188.557 -75.1791)
(-7.31142 188.539 -75.2186)
(-12.2255 177.404 -74.3938)
(-25.3015 171.338 -78.4251)
(-13.798 179.208 -73.0477)
(-19.4871 179.275 -74.96)
(-19.3847 179.256 -74.8983)
(-8.24467 188.268 -75.1469)
(-3.64508 192.671 -89.5054)
(-13.7232 179.444 -73.248)
(-4.39914 190.623 -90.8646)
(-14.3617 179.438 -73.257)
(-11.8839 178.577 -73.7371)
(-22.5441 179.44 -77.9117)
(-4.44926 191.868 -89.5698)
(-4.47094 191.88 -89.7367)
(-4.62619 191.47 -89.5662)
(-4.70436 191.423 -89.4745)
(-18.8156 173.695 -75.516)
(-7.98036 188.454 -75.3201)
(-8.90617 182.018 -73.574)
(-14.2004 179.203 -72.9953)
(-12.5241 176.986 -74.6726)
(-12.5993 176.889 -74.7285)
(-7.72313 181.372 -74.2646)
(-3.78956 186.907 -76.0682)
(-10.1793 183.007 -73.5326)
(-4.17026 192.301 -89.249)
(-9.14938 181.802 -73.6282)
(-7.69491 188.412 -74.9045)
(-3.94086 192.587 -89.6242)
(-11.9635 177.89 -73.7493)
(-9.56874 182.673 -73.4465)
(-7.10807 181.207 -74.8709)
(-4.70261 188.032 -75.6319)
(-10.2206 184.03 -73.5217)
(-18.7001 178.639 -74.3405)
(-12.3527 177.186 -74.6024)
(-21.2638 179.537 -76.3532)
(-4.63625 182.956 -76.4281)
(-18.5146 177.358 -73.7739)
(-4.58915 190.897 -90.8228)
(-4.52202 191.934 -89.3078)
(-12.0085 178.025 -74.0285)
(-4.16846 192.26 -89.4091)
(-4.36401 192.189 -89.7673)
(-4.08768 192.334 -89.3823)
(-4.12867 192.358 -89.5742)
(-4.00447 192.476 -89.1039)
(-18.8027 178.723 -74.4027)
(-18.8233 173.743 -75.3939)
(-12.0795 177.674 -74.2489)
(-20.6636 179.544 -75.8992)
(-18.385 177.049 -73.8881)
(-14.3665 179.276 -73.1532)
(-12.9209 176.459 -75.0244)
(-19.1475 178.868 -74.4682)
(-19.0357 178.88 -74.5078)
(-16.5322 175.219 -74.568)
(-16.3494 175.112 -74.6773)
(-7.51677 188.45 -75.0034)
(-3.81296 186.742 -67.9423)
(-4.09793 186.851 -67.8061)
(-18.5058 178.04 -74.1118)
(-3.00894 192.622 -89.2398)
(-10.4191 183.735 -73.6562)
(-13.7254 179.267 -73.1694)
(-4.18441 190.427 -90.7429)
(-7.45991 181.47 -74.2032)
(-12.7141 179.242 -73.2828)
(-12.6522 179.142 -73.2673)
(-3.73833 185.022 -76.3898)
(-12.2705 178.901 -73.3791)
(-3.62711 185.722 -76.1851)
(-3.62828 185.72 -76.3309)
(-12.3595 177.212 -74.47)
(-12.1515 178.865 -73.4633)
(-11.9779 178.5 -73.6866)
(-10.6377 184.546 -73.9141)
(-20.7843 179.532 -75.8392)
(-3.02128 192.727 -89.4072)
(-7.28635 181.398 -74.3863)
(-3.76953 192.671 -89.5816)
(-3.70994 192.592 -89.4411)
(-18.3782 177.783 -74.0229)
(-24.2714 170.756 -78.4731)
(-19.2409 178.934 -74.4607)
(-4.14044 187.549 -75.5338)
(-9.72284 183.396 -73.25)
(-10.0272 183.265 -73.4916)
(-1.65707 191.757 -89.497)
(-11.9634 178.493 -73.4785)
(-11.9862 178.648 -73.3395)
(-7.78674 188.587 -75.4053)
(-4.54285 187.954 -75.7081)
(-4.63458 187.958 -75.6144)
(-4.57023 187.898 -75.5999)
(-7.05854 188.607 -75.2396)
(-4.27605 186.943 -67.7229)
(-12.6337 176.811 -74.8478)
(-12.6544 176.768 -74.6443)
(-22.1493 179.464 -76.9919)
(-21.7659 179.574 -77.1634)
(-3.19478 189.823 -90.8073)
(-3.82505 190.107 -90.9284)
(-3.86839 190.128 -90.626)
(-3.55705 189.958 -90.8067)
(-3.55292 189.873 -90.5158)
(-3.23096 189.774 -90.5185)
(-4.0686 190.311 -90.6665)
(-2.5017 189.823 -90.9198)
(-4.05026 190.201 -90.4378)
(-1.73844 191.251 -89.2904)
(-1.73068 191.054 -89.3773)
(-18.3155 177.591 -74.0029)
(-18.4603 177.556 -73.9638)
(-18.3848 177.473 -73.9838)
(-12.1406 177.601 -74.1677)
(-12.0229 177.544 -73.9094)
(-12.1949 177.388 -74.1686)
(-3.02261 189.772 -90.627)
(-2.79734 189.782 -90.7691)
(-6.57525 188.618 -75.087)
(-6.63596 188.667 -75.2974)
(-26.3004 171.909 -78.7784)
(-26.1238 172.17 -78.4045)
(-13.0921 179.288 -73.207)
(-13.1981 179.59 -73.2634)
(-13.5863 179.312 -73.2061)
(-12.8031 179.12 -73.0489)
(-1.66574 191.415 -89.4343)
(-11.9784 178.895 -73.5462)
(-18.4527 177.667 -73.9941)
(-18.2619 177.737 -74.0052)
(-1.75882 190.649 -88.9604)
(-1.93399 190.174 -89.0194)
(-1.94382 190.284 -89.3954)
(-1.8278 190.398 -89.8257)
(-1.96192 190.219 -89.7591)
(-1.75853 190.92 -89.102)
(-1.78488 190.786 -89.3713)
(-1.68774 191.056 -88.9123)
(-27.1507 173.743 -79.1512)
(-18.2566 176.083 -74.1719)
(-9.00146 182.196 -73.4975)
(-4.59155 191.348 -89.9847)
(-4.59972 191.263 -89.7828)
(-1.61735 190.826 -89.7727)
(-18.3121 175.787 -74.1705)
(-18.5225 177.466 -73.8507)
(-5.34261 188.576 -75.5804)
(-15.3272 179.115 -73.1836)
(-15.2702 179.493 -73.3621)
(-4.58981 187.927 -75.4898)
(-20.951 179.554 -75.8826)
(-16.3996 178.703 -73.3728)
(-17.9806 176.149 -74.2429)
(-17.9923 176.568 -74.1123)
(-18.083 176.361 -74.1707)
(-18.2347 176.448 -74.0841)
(-18.1021 174.957 -74.7633)
(-4.34902 192.044 -89.4818)
(-4.40504 191.968 -89.6126)
(-4.4259 191.942 -89.4447)
(-5.47203 188.499 -75.4449)
(-5.55941 188.616 -75.5118)
(-7.0467 181.015 -75.2096)
(-18.7588 178.446 -74.2866)
(-2.10923 190.033 -89.9291)
(-19.5172 179.175 -74.8385)
(-4.90513 188.279 -75.2428)
(-4.77379 188.106 -75.3682)
(-12.2123 177.326 -74.5717)
(-4.43113 187.804 -75.6961)
(-5.82033 188.625 -75.022)
(-5.75067 188.558 -75.1796)
(-5.87826 188.576 -75.2183)
(-6.18336 188.614 -75.0936)
(-12.0029 178.553 -73.5731)
(-11.9936 178.553 -73.4876)
(-11.9684 178.741 -73.1963)
(-12.0159 178.615 -73.4589)
(-12.0551 178.683 -73.4799)
(-12.0873 178.717 -73.3706)
(-18.1923 175.775 -74.3428)
(-4.11614 187.424 -75.7515)
(-4.07274 187.514 -75.8836)
(-4.17444 187.536 -75.7772)
(-12.0056 178.39 -73.6445)
(-11.8994 178.319 -73.5009)
(-18.3195 176.037 -74.0077)
(-12.1638 177.503 -74.3405)
(-12.0989 177.593 -74.3214)
(-4.26205 192.345 -89.7412)
(-3.92107 187.167 -75.6661)
(-6.23072 188.674 -75.354)
(-3.83199 184.706 -76.6503)
(-5.11796 188.425 -75.5855)
(-5.15746 188.341 -75.4783)
(-5.24641 188.421 -75.5033)
(-12.7986 179.139 -73.2189)
(-12.8188 179.165 -72.9309)
(-20.3525 179.484 -75.6155)
(-20.1774 179.563 -75.6301)
(-20.4968 179.584 -75.8737)
(-4.43732 187.79 -75.5471)
(-4.27848 187.777 -75.422)
(-1.7671 191.408 -89.201)
(-1.73221 191.572 -89.3534)
(-1.80176 191.555 -89.0885)
(-10.1327 183.732 -73.489)
(-3.52505 185.458 -76.0093)
(-3.6331 185.55 -76.2299)
(-4.14567 187.724 -75.9012)
(-4.93229 188.308 -75.646)
(-1.95093 192.021 -89.2949)
(-1.97923 191.969 -89.0419)
(-3.63515 186.691 -75.689)
(-9.13762 182.723 -73.2089)
(-9.20565 182.493 -73.4042)
(-18.5548 177.598 -73.8804)
(-18.6862 177.86 -73.8749)
(-18.6409 177.759 -73.8515)
(-12.9113 179.26 -73.2377)
(-3.62817 185.302 -76.1848)
(-18.29 176.966 -73.9862)
(-18.1364 176.824 -74.0521)
(-18.1357 177.028 -74.0234)
(-12.7634 176.575 -75.127)
(-19.7131 179.252 -74.6265)
(-6.99506 188.573 -75.0392)
(-18.4374 177.351 -73.926)
(-7.98333 181.699 -73.7663)
(-18.2565 176.322 -74.0914)
(-18.3103 176.171 -74.0281)
(-18.3301 176.306 -73.9063)
(-9.59211 182.898 -73.3875)
(-3.94391 187.249 -75.9464)
(-13.9717 179.201 -72.9763)
(-18.3276 176.701 -73.9288)
(-1.75481 191.114 -89.1439)
(-20.2982 179.456 -75.2824)
(-8.17831 181.539 -73.9323)
(-18.5608 177.915 -74.0596)
(-20.4453 179.483 -75.4462)
(-9.41887 182.571 -73.4393)
(-18.6883 178.254 -74.2137)
(-12.9279 179.157 -73.1131)
(-13.0383 179.196 -72.9273)
(-9.83613 182.66 -73.4917)
(-18.22 176.235 -74.1546)
(-3.60875 185.815 -76.0821)
(-21.1276 179.545 -76.1981)
(-20.6385 179.509 -75.7152)
(-10.5792 184.896 -73.9321)
(-18.9718 178.379 -73.8799)
(-18.7749 178.094 -74.0395)
(-9.49064 182.331 -73.5057)
(-9.24491 182.256 -73.513)
(-3.2866 192.636 -89.2552)
(-3.32712 192.777 -89.49)
(-1.74583 191.411 -88.9788)
(-1.78655 191.679 -88.9076)
(-1.72498 191.243 -88.9829)
(-19.496 179.372 -75.0278)
(-19.6299 179.255 -74.9842)
(-19.2623 178.988 -74.5556)
(-19.3916 179.042 -74.5524)
(-19.3223 178.992 -74.4545)
(-3.68261 186.18 -76.1614)
(-3.63192 186.043 -76.3197)
(-5.06714 188.317 -75.5442)
(-18.3355 176.842 -73.9269)
(-3.08887 192.763 -88.7652)
(-3.14179 192.633 -89.0384)
(-4.29165 190.494 -90.3894)
(-3.67119 186.34 -75.9259)
(-3.60038 186.11 -75.9313)
(-13.2957 179.234 -73.125)
(-3.81616 186.749 -75.9394)
(-3.70416 186.852 -76.173)
(-2.90975 192.583 -89.084)
(-4.34744 187.788 -75.7662)
(-4.3813 187.733 -75.674)
(-5.328 188.45 -75.1847)
(-13.3614 179.369 -73.231)
(-18.3896 175.069 -74.3763)
(-18.2654 175.111 -74.6132)
(-12.0313 177.908 -74.0893)
(-3.67683 186.415 -76.1985)
(-1.82271 191.848 -88.8474)
(-1.88627 191.805 -89.0613)
(-3.65633 185.983 -76.1184)
(-3.6441 185.863 -76.2509)
(-3.75709 184.764 -76.2849)
(-12.2344 178.867 -73.2353)
(-12.1454 178.775 -73.2987)
(-12.2419 178.824 -73.3467)
(-5.65596 188.556 -75.3909)
(-5.65164 188.518 -75.2429)
(-5.56645 188.491 -75.3412)
(-18.5332 177.777 -74.0003)
(-11.8883 178.015 -73.63)
(-4.04752 187.308 -75.7239)
(-5.52161 188.497 -75.1768)
(-4.90002 188.158 -75.5005)
(-18.1038 175.425 -74.5242)
(-18.3042 175.45 -74.3579)
(-19.0855 178.684 -74.2737)
(-4.34655 192.297 -89.1022)
(-18.4462 177.215 -73.8506)
(-18.2704 177.251 -73.9979)
(-9.72053 183.111 -73.3782)
(-3.83356 192.527 -89.4462)
(-3.98187 192.431 -89.4515)
(-3.90132 192.464 -89.2561)
(-12.2957 177.304 -74.3804)
(-1.8329 191.718 -89.2383)
(-1.86368 192.005 -88.7674)
(-3.13538 192.642 -89.2725)
(-8.47376 188.176 -75.0989)
(-20.8164 179.555 -76.0141)
(-3.58508 192.611 -89.3624)
(-3.52606 192.734 -89.5126)
(-4.2827 190.544 -90.6723)
(-13.4697 179.22 -73.0956)
(-13.6158 179.202 -73.0216)
(-13.4574 179.204 -72.9435)
(-5.46406 188.449 -75.3074)
(-10.8559 184.637 -74.0864)
(-11.9357 178.637 -73.6625)
(-18.4085 177.986 -74.0722)
(-18.3954 177.89 -74.0446)
(-18.2346 177.36 -74.0038)
(-4.49752 191.761 -89.6009)
(-4.57385 191.721 -89.4386)
(-4.56181 191.599 -89.6177)
(-4.6899 191.572 -89.4103)
(-7.74184 188.418 -75.1427)
(-12.5256 179.16 -73.2895)
(-12.5869 179.067 -73.2083)
(-12.4786 179.067 -73.2382)
(-14.1303 179.363 -73.2209)
(-9.95563 182.873 -73.5002)
(-21.0065 179.643 -76.4016)
(-4.78777 188.205 -75.6827)
(-4.79035 188.082 -75.5885)
(-18.335 174.899 -74.6945)
(-3.66473 185.378 -76.4541)
(-3.5952 185.627 -76.5038)
(-4.26523 192.188 -89.3235)
(-9.24099 182.009 -73.5751)
(-11.9801 178.159 -73.6605)
(-8.25933 188.419 -75.3898)
(-2.42911 192.423 -88.9063)
(-4.08168 187.434 -75.5928)
(-3.95724 187.338 -75.5551)
(-18.2629 177.113 -73.9986)
(-7.18336 181.309 -74.6223)
(-7.42317 181.096 -74.7559)
(-6.71384 181.331 -74.973)
(-4.30864 187.703 -75.75)
(-4.59774 188.095 -75.7402)
(-12.8223 176.565 -74.8602)
(-4.33469 187.688 -75.5896)
(-20.2737 179.45 -75.4842)
(-4.14341 190.345 -90.9103)
(-18.6007 178.12 -74.1598)
(-2.47169 192.691 -89.4602)
(-2.54515 192.51 -89.2736)
(-2.36053 192.527 -89.3848)
(-18.3873 176.913 -73.8242)
(-18.9406 178.72 -74.4287)
(-19.0837 178.786 -74.4243)
(-5.84655 188.67 -75.437)
(-4.23537 187.656 -75.5083)
(-19.1864 179.106 -74.6869)
(-18.2096 177.497 -73.9963)
(-4.42531 192.076 -89.2638)
(-4.26117 192.182 -89.553)
(-11.9308 178.146 -74.0158)
(-3.84115 192.57 -89.0413)
(-4.36189 192.072 -89.6463)
(-4.42908 192.033 -89.7644)
(-4.0302 192.395 -89.2529)
(-4.17495 192.44 -89.0511)
(-18.8642 178.896 -74.4777)
(-3.43531 192.663 -88.984)
(-3.67058 192.679 -88.92)
(-12.0085 178.237 -73.8768)
(-5.08124 188.279 -75.3739)
(-5.00245 188.228 -75.4675)
(-5.36847 188.429 -75.402)
(-12.0487 178.047 -73.8582)
(-19.1199 178.959 -74.5583)
(-16.6875 175.392 -74.4115)
(-3.91076 186.831 -67.6904)
(-4.02452 186.753 -67.9958)
(-4.05325 186.902 -67.4987)
(-2.21803 192.239 -88.9869)
(-12.0218 178.29 -73.7219)
(-2.40412 192.374 -89.1502)
(-2.71038 192.521 -89.1174)
(-2.28657 192.282 -89.1223)
(-2.5382 192.441 -89.0632)
(-5.26872 188.376 -75.3281)
(-2.81418 192.664 -89.3599)
(-2.63468 192.613 -89.3553)
(-20.0857 179.462 -75.4482)
(-4.25077 187.59 -75.6874)
(-4.17118 187.493 -75.6662)
(-12.0498 177.868 -73.884)
(-3.62371 192.588 -89.1355)
(-3.47436 192.61 -89.2276)
(-12.0102 178.62 -73.5634)
(-11.9599 178.696 -73.6163)
(-12.0189 178.675 -73.5547)
(-12.2049 179.062 -73.3933)
(-12.2842 178.97 -73.3544)
(-12.3726 179.007 -73.1148)
(-12.2585 178.95 -73.1245)
(-12.3354 178.963 -73.2493)
(-12.2942 179.091 -73.3441)
(-12.3951 179.153 -73.3148)
(-12.3912 179.041 -73.2719)
(-12.0671 178.787 -73.5122)
(-12.0736 178.881 -73.501)
(-12.1405 178.789 -73.4428)
(-2.1231 190.003 -89.4346)
(-12.2065 178.889 -73.4346)
(-12.5632 179.056 -73.0874)
(-12.4597 179.053 -73.0473)
(-12.4887 179.037 -73.1357)
(-3.43727 192.661 -89.3798)
(-3.74221 192.535 -89.2803)
(-11.9227 178.481 -73.7672)
(-11.9022 178.389 -73.8594)
(-4.23059 186.991 -67.3474)
(-2.24181 192.361 -89.3148)
(-2.19123 192.221 -89.1959)
(-2.05991 192.121 -89.2525)
(-10.4006 183.522 -73.6212)
(-5.75812 188.572 -75.337)
(-2.12146 192.136 -89.0255)
(-11.9654 178.785 -73.5875)
(-21.936 174.149 -104.828)
(-22.1635 173.964 -104.982)
(-0.94815 182.663 -58.113)
(-1.06095 182.744 -57.9488)
(-21.1557 174.051 -64.6884)
(-21.3451 173.972 -64.7458)
(-3.99258 181.339 -55.8947)
(-4.00673 181.141 -55.8928)
(1.09123 187.468 -58.0624)
(1.19163 187.394 -58.2101)
(-8.47355 181.835 -56.6775)
(-8.42794 182.031 -56.6739)
(-7.28042 179.344 -56.4176)
(-7.45549 179.446 -56.45)
(-19.8434 162.726 -101.735)
(-19.5807 162.747 -101.533)
(-5.99782 179.114 -56.1916)
(-6.17499 179.101 -56.2218)
(-16.5154 174.018 -100.583)
(-16.7231 174.199 -100.768)
(-15.4721 172.653 -99.5944)
(-15.6196 172.911 -99.7425)
(-0.0453382 182.674 -59.111)
(-0.214063 182.602 -58.9582)
(-4.03434 180.945 -55.8933)
(-18.6276 175.069 -102.365)
(-18.8854 175.103 -102.57)
(-8.34081 180.497 -56.6254)
(-8.4078 180.679 -56.6409)
(1.46952 184.567 -59.8811)
(1.38688 184.359 -59.8898)
(-22.0547 173.806 -64.9814)
(-22.2353 173.793 -65.0461)
(-14.7475 170.274 -98.7252)
(-14.7924 170.594 -98.8011)
(-15.0686 167.016 -98.5591)
(-14.9752 167.333 -98.5268)
(-18.8705 176.809 -64.2854)
(-18.9455 176.576 -64.2758)
(-24.2996 180.059 -66.8113)
(-24.145 180.202 -66.7771)
(-22.5948 173.8 -65.1801)
(-22.7726 173.82 -65.2489)
(-20.4528 174.929 -103.771)
(-20.7106 174.841 -103.96)
(-24.4211 169.861 -106.218)
(-24.4739 169.534 -106.217)
(-24.8758 179.301 -66.903)
(-24.7778 179.466 -66.8932)
(-23.1224 173.892 -65.3896)
(-23.2932 173.943 -65.461)
(-19.6395 175.303 -64.3286)
(-19.7967 175.108 -64.3555)
(-20.1934 175.001 -103.577)
(-4.33169 180.184 -55.9279)
(-4.45074 180.016 -55.9447)
(-24.9193 175.343 -66.2857)
(-25.0277 175.563 -66.3611)
(-4.58774 179.849 -55.9647)
(-24.5338 167.89 -106.054)
(-24.503 167.566 -105.989)
(-24.5494 168.217 -106.108)
(-8.37031 182.21 -56.6679)
(-8.29342 182.386 -56.6585)
(-4.41322 182.742 -55.9977)
(-4.31753 182.59 -55.9779)
(-20.9648 174.736 -104.145)
(-21.2154 174.613 -104.325)
(-17.0863 163.875 -99.7315)
(-16.8649 164.074 -99.5841)
(-24.2755 170.507 -106.187)
(-24.3551 170.187 -106.208)
(-18.7537 178.217 -64.4676)
(-18.7326 178.031 -64.4299)
(-23.8246 171.737 -105.993)
(-23.9558 171.44 -106.057)
(-20.8786 162.822 -102.555)
(-20.6232 162.771 -102.349)
(-1.60413 184.568 -56.4662)
(-1.5778 184.792 -56.3876)
(-0.933994 186.489 -56.2845)
(-0.811571 186.657 -56.3397)
(-4.04278 181.89 -55.9153)
(-4.00944 181.709 -55.9056)
(-4.08641 182.065 -55.9267)
(-14.7373 168.636 -98.5078)
(-14.7116 168.965 -98.5298)
(-22.9489 173.85 -65.319)
(-23.9797 180.338 -66.7378)
(-23.7902 180.473 -66.6894)
(-8.50613 181.639 -56.6788)
(-24.6711 179.625 -66.8791)
(-23.3029 164.449 -104.654)
(-23.1234 164.227 -104.486)
(-23.631 164.93 -104.971)
(-23.4725 164.684 -104.816)
(-14.8953 167.654 -98.5055)
(-15.569 165.813 -98.7956)
(-15.4258 166.103 -98.721)
(-16.4463 164.511 -99.3135)
(-16.2505 164.749 -99.1911)
(-16.0642 164.999 -99.0779)
(-23.7786 165.188 -105.119)
(-24.2439 166.319 -105.627)
(-24.1464 166.023 -105.513)
(-24.0365 165.735 -105.391)
(-21.4609 174.474 -104.499)
(-21.701 174.318 -104.666)
(-18.7216 177.842 -64.3956)
(-1.86547 193.767 -164.305)
(-2.07421 193.776 -164.303)
(-2.28255 193.77 -164.297)
(-24.5509 168.545 -106.151)
(-22.6919 180.958 -66.3612)
(-22.4317 181.013 -66.2739)
(-24.5132 169.205 -106.206)
(-24.5389 168.875 -106.184)
(-24.0752 171.135 -106.111)
(-24.1818 170.824 -106.155)
(-23.3618 172.58 -105.739)
(-23.5272 172.308 -105.834)
(-22.9998 173.092 -105.522)
(-23.1862 172.842 -105.636)
(-1.65768 193.748 -164.305)
(-15.3369 172.384 -99.4547)
(-15.2139 172.105 -99.3231)
(-15.104 171.818 -99.2006)
(-15.0067 171.521 -99.0869)
(-18.5403 162.999 -100.754)
(-18.2861 163.104 -100.569)
(-18.798 162.911 -100.943)
(-19.3189 162.784 -101.333)
(-19.0575 162.839 -101.137)
(-24.5551 179.777 -66.8606)
(-24.4314 179.922 -66.8381)
(-20.1049 162.722 -101.939)
(-20.3654 162.738 -102.144)
(-21.6202 163.076 -103.166)
(-21.3778 162.975 -102.964)
(-21.13 162.89 -102.76)
(-4.23627 180.359 -55.9153)
(-21.8576 163.193 -103.366)
(-22.7353 163.823 -104.131)
(-22.5276 163.642 -103.946)
(-22.312 163.476 -103.757)
(-24.458 167.247 -105.913)
(-24.3998 166.932 -105.827)
(-23.6814 172.027 -105.918)
(-20.9702 174.142 -64.6346)
(-5.98249 189.666 -163.26)
(-5.96018 189.464 -163.214)
(-5.50335 191.819 -163.772)
(-5.59946 191.639 -163.728)
(-1.24563 193.681 -164.299)
(-1.45062 193.719 -164.303)
(-18.8783 178.763 -64.6009)
(-18.8269 178.584 -64.5533)
(-4.73355 187.159 -162.705)
(-4.57661 187.023 -162.677)
(-0.689407 186.805 -56.4043)
(-0.557047 186.947 -56.4827)
(-19.2491 179.564 -64.8661)
(-19.1277 179.355 -64.7877)
(-19.3983 179.784 -64.9564)
(-19.9008 180.324 -65.2285)
(-19.7268 180.164 -65.1385)
(-20.0766 180.464 -65.3158)
(-20.2424 180.581 -65.3959)
(-20.9164 180.912 -65.6977)
(-20.7499 180.849 -65.6262)
(-7.56655 183.265 -56.5524)
(-7.40162 183.372 -56.5263)
(-25.0629 178.913 -66.91)
(-24.9738 179.112 -66.9089)
(-3.30583 193.585 -164.231)
(-3.50197 193.517 -164.211)
(-25.1234 175.802 -66.4345)
(-25.207 176.059 -66.5067)
(-25.273 176.324 -66.5734)
(-25.3221 176.599 -66.6355)
(1.84531 189.831 -163.472)
(1.84511 190.034 -163.52)
(-3.69436 193.438 -164.188)
(-5.88408 190.878 -163.544)
(-5.92734 190.679 -163.497)
(-23.4602 174.004 -65.5325)
(-23.6235 174.076 -65.6043)
(-4.88311 192.63 -163.974)
(-5.02535 192.482 -163.936)
(-20.7867 174.248 -64.5838)
(-20.4355 174.492 -64.4929)
(-20.6144 174.36 -64.538)
(-5.99354 190.073 -163.355)
(-5.99374 189.869 -163.307)
(-18.9462 178.957 -64.6571)
(-5.92745 189.263 -163.168)
(-5.88392 189.064 -163.122)
(-25.2193 178.45 -66.8937)
(-25.1461 178.688 -66.9048)
(-19.0259 179.15 -64.7173)
(-16.1273 173.613 -100.228)
(-16.3169 173.822 -100.403)
(-0.0837876 193.233 -164.221)
(-0.266869 193.332 -164.24)
(0.0931059 193.125 -164.199)
(-21.7031 181.061 -66.0123)
(-21.4804 181.043 -65.9271)
(-15.9478 173.391 -100.06)
(-4.68534 183.055 -56.0514)
(-4.53434 182.897 -56.022)
(-5.02024 179.478 -56.0311)
(-5.17181 179.383 -56.0551)
(-5.32112 179.305 -56.0792)
(-8.19982 182.56 -56.6462)
(-21.8751 173.83 -64.9189)
(-19.67 175.094 -103.181)
(-19.9319 175.056 -103.381)
(-19.4075 175.114 -102.979)
(-19.146 175.117 -102.775)
(0.428183 186.999 -162.782)
(0.585118 187.133 -162.817)
(-3.88204 186.571 -162.587)
(-3.69423 186.481 -162.57)
(1.01174 187.576 -162.93)
(1.1358 187.74 -162.97)
(-7.22532 183.465 -56.498)
(0.428001 192.88 -164.15)
(0.264173 193.007 -164.176)
(0.585054 192.745 -164.122)
(-1.03664 186.33 -56.2476)
(1.59868 191.273 -163.802)
(1.50755 191.488 -163.85)
(1.40471 191.695 -163.896)
(1.67468 191.058 -163.754)
(-14.701 169.624 -98.6058)
(-14.7172 169.951 -98.6602)
(1.83392 190.237 -163.567)
(1.7355 189.026 -163.283)
(1.77902 189.225 -163.33)
(1.25024 187.909 -163.012)
(1.35531 188.084 -163.055)
(-14.8292 167.979 -98.4955)
(-0.453859 186.465 -162.639)
(-0.266382 186.553 -162.663)
(-0.646252 186.387 -162.616)
(-1.34631 186.195 -162.556)
(-1.09165 186.248 -162.574)
(-2.0272 186.129 -162.526)
(-1.81593 186.137 -162.532)
(-4.41261 193.03 -164.077)
(-4.57643 192.905 -164.045)
(-0.8426 193.573 -164.283)
(-1.04242 193.632 -164.292)
(-2.90266 186.223 -162.528)
(-2.69762 186.184 -162.524)
(-5.50375 188.118 -162.911)
(-5.39866 187.941 -162.872)
(-3.50217 186.401 -162.556)
(-3.30558 186.331 -162.544)
(-18.7225 177.652 -64.3657)
(-18.7376 177.462 -64.3408)
(-1.61468 184.349 -56.5602)
(-4.24179 186.779 -162.628)
(-4.06509 186.67 -162.606)
(-4.41318 186.896 -162.651)
(-4.88306 187.301 -162.735)
(-8.51882 181.449 -56.6769)
(1.56551 186.849 -58.8879)
(1.62026 186.692 -59.0243)
(-5.68688 188.484 -162.992)
(-5.5995 188.299 -162.951)
(-1.58999 186.159 -162.542)
(0.0933668 186.758 -162.719)
(0.264259 186.874 -162.75)
(0.711127 187.588 -57.5827)
(0.849867 187.569 -57.7458)
(-5.39895 191.995 -163.815)
(-2.49059 186.155 -162.521)
(-2.25957 186.135 -162.522)
(-5.6401 179.19 -56.1316)
(-5.81086 179.146 -56.1601)
(-4.73348 192.771 -164.01)
(-25.3706 177.242 -66.7563)
(-25.3595 177.587 -66.8075)
(-3.88187 193.35 -164.164)
(-3.10559 193.642 -164.249)
(-2.9028 193.689 -164.264)
(-3.10583 186.271 -162.535)
(-0.454069 193.423 -164.256)
(-0.646565 193.502 -164.271)
(1.1644 192.093 -163.983)
(1.02536 192.279 -164.023)
(-4.15002 180.561 -55.9048)
(1.2852 191.905 -163.942)
(1.53845 188.449 -163.144)
(1.61536 188.637 -163.19)
(1.45108 188.264 -163.099)
(1.73566 190.84 -163.705)
(-8.49552 181.063 -56.6644)
(-8.51421 181.265 -56.6721)
(1.83406 189.628 -163.425)
(1.68095 188.83 -163.236)
(1.81175 189.426 -163.377)
(1.44389 187.102 -58.6308)
(1.50865 186.983 -58.7602)
(0.877686 187.421 -162.891)
(0.734637 187.274 -162.853)
(-6.54776 179.117 -56.2864)
(-6.73288 179.149 -56.319)
(-0.366337 182.561 -58.8084)
(-0.0835068 186.651 -162.69)
(-0.502406 182.544 -58.6658)
(-0.6213 182.546 -58.5328)
(-24.3654 174.601 -65.9625)
(-24.5069 174.749 -66.0384)
(-4.08104 180.756 -55.8972)
(-0.864702 186.312 -162.594)
(-24.6499 174.924 -66.1192)
(-6.9127 179.197 -56.351)
(-7.09799 179.26 -56.3843)
(1.27872 187.313 -58.3459)
(1.36454 187.214 -58.4886)
(-21.28 181.01 -65.8477)
(-6.29474 183.697 -56.3427)
(-6.11045 183.69 -56.3108)
(-23.1819 180.796 -66.5162)
(-22.9485 180.883 -66.4439)
(-15.1751 166.705 -98.6025)
(-5.98235 190.276 -163.402)
(0.54643 183.116 -59.555)
(0.414733 182.994 -59.4678)
(-5.69424 183.625 -56.2377)
(-5.49949 183.567 -56.2029)
(-5.68644 191.455 -163.683)
(-5.15945 192.327 -163.897)
(-5.28489 192.165 -163.857)
(-1.54036 185.018 -56.3202)
(-5.32 183.489 -56.1703)
(-5.16195 183.412 -56.1413)
(-3.99204 181.517 -55.8985)
(-4.06465 193.253 -164.137)
(-4.24153 193.146 -164.108)
(-5.90928 183.666 -56.2756)
(-25.356 176.902 -66.6966)
(-0.118756 187.314 -56.7929)
(0.0318367 187.405 -56.9164)
(-0.267398 187.208 -56.6786)
(-6.69154 183.646 -56.41)
(-6.49335 183.679 -56.3766)
(0.580061 187.587 -57.4373)
(-8.04329 179.982 -56.5629)
(-8.15574 180.138 -56.5857)
(-23.914 165.456 -105.259)
(-18.7673 177.252 -64.3182)
(-5.82938 188.867 -163.078)
(0.734686 192.603 -164.092)
(0.816016 183.414 -59.7109)
(0.681291 183.258 -59.6367)
(0.876914 192.453 -164.061)
(-4.22507 182.422 -55.9583)
(-20.1144 174.771 -64.4189)
(-20.2724 174.626 -64.4541)
(-19.2224 175.956 -64.2789)
(-19.3428 175.741 -64.2891)
(-25.3276 177.901 -66.8458)
(-25.2803 178.184 -66.8738)
(-5.28422 187.771 -162.835)
(-5.16016 187.607 -162.8)
(-7.85364 183.014 -56.5964)
(-7.7112 183.149 -56.5748)
(1.81177 190.44 -163.613)
(1.7789 190.641 -163.659)
(-19.4888 175.512 -64.3064)
(-19.1193 176.157 -64.2731)
(-16.9388 174.364 -100.957)
(-17.1627 174.514 -101.151)
(-17.3932 174.647 -101.348)
(-17.6306 174.765 -101.548)
(-21.5195 173.913 -64.8008)
(-18.1208 174.95 -101.954)
(-18.3722 175.018 -102.159)
(-7.6285 179.565 -56.4824)
(-15.2946 166.4 -98.6567)
(-19.5607 179.986 -65.0487)
(-18.8097 177.039 -64.2998)
(0.173558 187.477 -57.039)
(0.308616 187.532 -57.1623)
(-15.7232 165.532 -98.88)
(-15.8885 165.26 -98.9742)
(-22.3854 173.766 -105.129)
(-22.5988 173.555 -105.269)
(-22.8042 173.329 -105.4)
(-2.69744 193.725 -164.277)
(1.18387 183.953 -59.8596)
(1.07237 183.77 -59.824)
(-16.6516 164.286 -99.4448)
(-22.4152 173.791 -65.1123)
(-17.3139 163.69 -99.8853)
(-15.7782 173.157 -99.8977)
(-24.3283 166.622 -105.732)
(-17.7893 163.364 -100.215)
(-17.5492 163.521 -100.047)
(-14.9223 171.219 -98.9823)
(-8.25196 180.304 -56.6059)
(-22.1886 181.047 -66.1894)
(-18.0353 163.227 -100.389)
(-22.0882 163.326 -103.563)
(-4.1493 182.252 -55.9416)
(-7.9878 182.87 -56.6164)
(-22.9338 164.018 -104.311)
(-1.16906 182.847 -57.779)
(-19.0279 176.365 -64.2725)
(-5.02611 187.45 -162.766)
(-20.5872 180.777 -65.5545)
(-20.4122 180.684 -65.4751)
(-17.873 174.866 -101.75)
(-19.9486 174.939 -64.3846)
(-14.8507 170.909 -98.8868)
(-5.76327 191.266 -163.637)
(-5.82973 191.074 -163.591)
(-14.6993 169.295 -98.5624)
(-6.35288 179.102 -56.2525)
(0.11875 182.769 -59.2472)
(-4.87495 179.579 -56.0083)
(-2.49074 193.752 -164.288)
(-1.4897 185.245 -56.267)
(-1.41543 185.496 -56.2283)
(1.72087 186.034 -59.4535)