// -*- C++ -*-
// File generated by PyFoam - sorry for the ugliness

FoamFile
{
 version 2.0;
 format ascii;
 class dictionary;
 object blockMeshDict;
}

convertToMeters 1;

vertices
  (
    (-31.029178119999997 162.30879849999997 -164.4676183)
    (3.927458119999997 162.30879849999997 -164.4676183)
    (3.927458119999997 201.2262015 -164.4676183)
    (-31.029178119999997 201.2262015 -164.4676183)
    (-31.029178119999997 162.30879849999997 -55.7301817)
    (3.927458119999997 162.30879849999997 -55.7301817)
    (3.927458119999997 201.2262015 -55.7301817)
    (-31.029178119999997 201.2262015 -55.7301817)
  );

blocks
  (
    hex

    (
      0
      1
      2
      3
      4
      5
      6
      7
    )

(7 8 22)    simpleGrading
    (1 1 1)
  );

edges
  (
  );

boundary
  (
    allBoundary

    {
      type patch;
      faces
        (

          (
            3
            7
            6
            2
          )

          (
            0
            4
            7
            3
          )

          (
            2
            6
            5
            1
          )

          (
            1
            5
            4
            0
          )

          (
            0
            3
            2
            1
          )

          (
            4
            5
            6
            7
          )
        );

    }
  ); 	// ************************************************************************* //

