// -*- C++ -*-
// File generated by PyFoam - sorry for the ugliness

FoamFile
{
 version 2.0;
 format ascii;
 class dictionary;
 object blockMeshDict;
}

convertToMeters 1;

vertices
  (
    (-31.064030199999998 162.2699975 -164.5760305)
    (3.9623101999999975 162.2699975 -164.5760305)
    (3.9623101999999975 201.26500249999998 -164.5760305)
    (-31.064030199999998 201.26500249999998 -164.5760305)
    (-31.064030199999998 162.2699975 -55.6217695)
    (3.9623101999999975 162.2699975 -55.6217695)
    (3.9623101999999975 201.26500249999998 -55.6217695)
    (-31.064030199999998 201.26500249999998 -55.6217695)
  );

blocks
  (
    hex

    (
      0
      1
      2
      3
      4
      5
      6
      7
    )

(8 8 22)    simpleGrading
    (1 1 1)
  );

edges
  (
  );

boundary
  (
    allBoundary

    {
      type patch;
      faces
        (

          (
            3
            7
            6
            2
          )

          (
            0
            4
            7
            3
          )

          (
            2
            6
            5
            1
          )

          (
            1
            5
            4
            0
          )

          (
            0
            3
            2
            1
          )

          (
            4
            5
            6
            7
          )
        );

    }
  ); 	// ************************************************************************* //

